157
Properties=species:S:1:pos:R:3 pbc="F F F"
C        0.00000000       0.00000000       0.00000000
N        1.41447171       5.95395853      -1.98846983
C        2.21266593       5.39438741      -2.61944065
C        3.19932108       4.71072904      -3.39929619
C        3.32194349       3.36699348      -3.33168657
C        2.49135252       2.49717570      -2.49240608
C        2.87110262       2.21791082      -1.17457998
C        2.06553474       1.40934082      -0.36866449
C        0.88176226       0.88176226      -0.88176226
C        0.49598926       1.15379926      -2.19320893
C        1.30140354       1.96222009      -2.99920287
C        4.08664150       5.42898903      -4.27736608
S        3.98782801       7.15627738      -4.44090148
C        5.27460873       7.14345435      -5.56551948
C        5.72392977       5.85853259      -5.77267311
N        5.03766167       4.89689250      -5.03270435
C        6.79459728       5.42082822      -6.64291639
C        7.12704337       4.11660050      -6.73202216
C        8.19739954       3.63622047      -7.58916075
C        8.53774471       2.28445262      -7.67891089
C        9.58138152       1.88853394      -8.52096280
C       10.28891982       2.82756950      -9.27403200
C        9.94967840       4.17641831      -9.18556544
C        8.90774040       4.55813547      -8.34342051
O        8.58989769       5.92121875      -8.27769808
C        7.56437593       6.41142124      -7.47018503
O        7.33303375       7.61637319      -7.46561470
H        4.06882025       2.83816870      -3.92142176
H        3.78967607       2.62923606      -0.76174042
H        2.36634966       1.20238295       0.65514399
H       -0.42885365       0.74746803      -2.59447460
H        0.98749962       2.17308539      -4.01923078
H        5.61088576       8.07648192      -5.99438577
H        6.59459078       3.36809859      -6.15081196
H        7.99716284       1.54073438      -7.09881620
H       11.10062255       2.51908874      -9.92819538
H       10.49001071       4.91978918      -9.76508466
C        9.93168635       0.49481834      -8.61285056
C       10.22506665      -0.67241847      -8.68980656
Br      10.69943778      -2.55974167      -8.81423790
N       -1.58148604      -1.80507229      -5.97034176
C       -2.33414740      -2.48604250      -5.40630410
C       -3.26371521      -3.32858534      -4.71704576
C       -3.32761250      -3.32546146      -3.36754958
C       -2.49188125      -2.49182548      -2.49722757
C       -1.24716129      -2.95782136      -2.05861076
C       -0.44151467      -2.15199233      -1.25003304
C       -0.88176226      -0.88176226      -0.88176226
C       -2.12021260      -0.40965788      -1.31312698
C       -2.92593526      -1.21531319      -2.12157805
C       -4.15683672      -4.20028508      -5.43587481
S       -4.15638136      -4.25581394      -7.17281157
C       -5.39749539      -5.43057828      -7.15550888
C       -5.76032983      -5.73270239      -5.86210325
N       -5.04521334      -5.02441192      -4.89763328
C       -6.76588914      -6.67444065      -5.41801210
C       -7.00204561      -6.86928154      -4.10433889
C       -7.99836296      -7.80772177      -3.61669603
C       -8.24013628      -8.00571313      -2.25525881
C       -9.21142021      -8.92721535      -1.85224269
C       -9.94359348      -9.65323302      -2.79369481
C       -9.70345842      -9.45593829      -4.15226543
C       -8.73350510      -8.53474737      -4.54104391
O       -8.51673692      -8.35803554      -5.91404207
C       -7.57310399      -7.46060079      -6.41227741
O       -7.43937166      -7.34884560      -7.62680438
H       -4.03168343      -3.96220150      -2.83452577
H       -0.89080725      -3.94497294      -2.34487236
H        0.52582081      -2.52073310      -0.91867632
H       -2.46404138       0.58219813      -1.03124573
H       -3.88790418      -0.83431188      -2.45759973
H       -5.77271170      -5.81668556      -8.09235618
H       -6.44039136      -6.32013753      -3.35297244
H       -7.67837372      -7.44887685      -1.50946285
H      -10.69832405     -10.36995723      -2.47962538
H      -10.26465701     -10.01254437      -4.89768317
C       -9.45999580      -9.13081146      -0.44854800
C       -9.66817785      -9.30132320       0.72704631
Br     -10.00479063      -9.57702626       2.62788288
N       -2.23208659       1.21286737       5.91194612
C       -2.79017900       2.07160258       5.36471241
C       -3.48038303       3.13267636       4.69628692
C       -3.33409300       3.32016136       3.36636919
C       -2.49271770       2.49111104       2.49710555
C       -1.14400535       2.81293189       2.30665618
C       -0.33792866       2.00749906       1.49811233
C       -0.88176226       0.88176226       0.88176226
C       -2.22403109       0.55396100       1.06500537
C       -3.03018583       1.35925253       1.87338814
C       -4.34934643       4.02816000       5.41549017
S       -4.61079440       3.84994566       7.12426681
C       -5.66566166       5.19456045       7.12336044
C       -5.77980867       5.71966549       5.85566131
N       -5.02511417       5.04460712       4.89753724
C       -6.56913037       6.85679789       5.43241364
C       -6.57050317       7.25996505       4.14519783
C       -7.34446727       8.39826585       3.68004764
C       -7.34350991       8.81178099       2.34581732
C       -8.10836072       9.91829373       1.96422381
C       -8.87380835      10.61642921       2.90028374
C       -8.87583150      10.20423367       4.23159698
C       -8.11003376       9.10013771       4.59912492
O       -8.13441031       8.70978065       5.94462357
C       -7.40816719       7.61836713       6.41944789
O       -7.48055188       7.32567665       7.60879310
H       -3.85535464       4.12391862       2.84913744
H       -0.70746121       3.68557841       2.78761294
H        0.70963159       2.26278069       1.36043951
H       -2.64962448      -0.32581867       0.58928317
H       -4.07485776       1.09051380       2.01444423
H       -6.12650570       5.50526051       8.04998724
H       -5.97775793       6.73594940       3.39979399
H       -6.75255206       8.27947376       1.60468760
H       -9.46789993      11.47702199       2.60298474
H       -9.46620951      10.73627875       4.97239629
C       -8.10675880      10.34400582       0.58859063
C       -8.10541720      10.70053970      -0.56350216
Br      -8.10324794      11.27702483      -2.42633876
N        1.93156428      -5.96051335       1.46482245
C        2.57458941      -5.39955371       2.25235087
C        3.37047947      -4.71404837       3.22481847
C        3.32661589      -3.36757756       3.32643010
C        2.49197984      -2.49722480       2.49172966
C        2.97985562      -2.00996555       1.27377224
C        2.17394214      -1.20139532       0.46820259
C        0.88176226      -0.88176226       0.88176226
C        0.38774948      -1.36176570       2.09348227
C        1.19348360      -2.17021646       2.89912645
C        4.23716605      -5.43361957       4.12221098
S        4.34279496      -7.16757803       4.07463388
C        5.48129206      -7.15315630       5.34913419
C        5.73566221      -5.86279579       5.75667748
N        5.02016925      -4.89833639       5.04875289
C        6.63561170      -5.42166963       6.80106056
C        6.78575418      -4.11041125       7.07950062
C        7.68141056      -3.62559444       8.11577576
C        7.83316480      -2.26668449       8.40125892
C        8.71504168      -1.86617847       9.40965810
C        9.44710464      -2.80763368      10.13578299
C        9.29591778      -4.16370709       9.85203727
C        8.41390368      -4.55001669       8.84537601
O        8.28304396      -5.92060298       8.58516759
C        7.42718764      -6.41637400       7.60242056
O        7.35432872      -7.62919195       7.43150096
H        3.92770489      -2.83744496       4.06326086
H        3.98446601      -2.25801821       0.93816833
H        2.55995619      -0.83204345      -0.47841102
H       -0.62108374      -1.11786031       2.41631241
H        0.79550413      -2.54441855       3.83989311
H        5.88360058      -8.08924299       5.70890988
H        6.23112447      -3.35884759       6.52352928
H        7.27101287      -1.52089947       7.84480108
H       10.13301145      -2.49549647      10.91939873
H        9.85784460      -4.90910439      10.40793557
C        8.87098565      -0.46508440       9.70328520
C        9.00158873       0.70833189       9.94919790
Br       9.21276285       2.60564678      10.34681794
