178
Properties=species:S:1:pos:R:3 pbc="F F F"
N        2.32437574       6.86386256      -2.89837386
C        3.12256996       6.30429143      -3.52934468
C        4.10922510       5.62063306      -4.30920022
C        4.23184752       4.27689750      -4.24159060
C        3.40125655       3.40707973      -3.40231010
C        3.78100664       3.12781484      -2.08448400
C        2.97543876       2.31924485      -1.27856851
C        1.79166628       1.79166628      -1.79166628
C        1.40589329       2.06370328      -3.10311296
C        2.21130757       2.87212411      -3.90910690
C        4.99654552       6.33889306      -5.18727010
S        4.89773203       8.06618141      -5.35080550
C        6.18451275       8.05335837      -6.47542350
C        6.63383379       6.76843662      -6.68257714
N        5.94756570       5.80679652      -5.94260838
C        7.70450130       6.33073224      -7.55282042
C        8.03694740       5.02650453      -7.64192619
C        9.10730357       4.54612449      -8.49906477
C        9.44764873       3.19435665      -8.58881491
C       10.49128554       2.79843796      -9.43086682
C       11.19882384       3.73747352     -10.18393602
C       10.85958242       5.08632233     -10.09546946
C        9.81764443       5.46803950      -9.25332454
O        9.49980171       6.83112278      -9.18760211
C        8.47427996       7.32132526      -8.38008905
O        8.24293777       8.52627722      -8.37551872
H        4.97872427       3.74807272      -4.83132578
H        4.69958009       3.53914009      -1.67164445
H        3.27625368       2.11228697      -0.25476003
H        0.48105038       1.65737206      -3.50437862
H        1.89740365       3.08298941      -4.92913480
H        6.52078979       8.98638594      -6.90428979
H        7.50449481       4.27800261      -7.06071598
H        8.90706687       2.45063841      -8.00872022
H       12.01052657       3.42899276     -10.83809940
H       11.39991474       5.82969320     -10.67498869
C       10.84159038       1.40472237      -9.52275458
C       11.13497067       0.23748556      -9.59971058
Br      11.60934180      -1.64983765      -9.72414192
N       -2.55329571      -6.88261222      -2.65070422
C       -3.28277814      -6.31768851      -3.35573941
C       -4.18496316      -5.62738343      -4.22671180
C       -4.23390013      -4.27731536      -4.23912012
C       -3.40153302      -3.40712195      -3.40199141
C       -3.83548628      -3.03267496      -2.12514425
C       -3.02976527      -2.22409439      -1.31939246
C       -1.79166628      -1.79166628      -1.79166628
C       -1.35164041      -2.15886872      -3.06220039
C       -2.15719551      -2.96731339      -3.86802968
C       -5.06310126      -6.34563971      -5.11396770
S       -5.05467223      -8.08227167      -5.17777504
C       -6.27579841      -8.06420491      -6.37329131
C       -6.63890331      -6.77080961      -6.67513462
N       -5.93977130      -5.80695068      -5.95024863
C       -7.63403099      -6.32631970      -7.62770327
C       -7.88591300      -5.01324762      -7.80621749
C       -8.87899577      -4.52548112      -8.74801594
C       -9.13599438      -3.16462591      -8.93020000
C      -10.10809586      -2.76164104      -9.85085342
C      -10.82642757      -3.70256404     -10.59124177
C      -10.57029255      -5.06052304     -10.41055862
C       -9.59907620      -5.44925324      -9.49067902
O       -9.36385666      -6.82154607      -9.33312387
C       -8.41334339      -7.31951840      -8.44283248
O       -8.25198546      -8.53298934      -8.35975891
H       -4.91621943      -3.74346007      -4.89844328
H       -4.79712234      -3.36931871      -1.74392358
H       -3.37324499      -1.94284556      -0.32721014
H       -0.38466736      -1.82688010      -3.43125360
H       -1.80109611      -3.25294992      -4.85548183
H       -6.64124073      -9.00067859      -6.76954620
H       -7.34372661      -4.26262536      -7.23686143
H       -8.58591759      -2.41927666      -8.36123125
H      -11.58250208      -3.38854599     -11.30657066
H      -11.12013184      -5.80550656     -10.97895822
C      -10.37250470      -1.35855160     -10.03801103
C      -10.59394709      -0.18346418     -10.19475553
Br     -10.95200072       1.71655278     -10.44819813
N       -6.48516254       1.54166747       4.05978214
C       -6.04072486       2.57782287       4.33765834
C       -5.49825047       3.85628117       4.68452674
C       -4.27483041       4.22757518       4.24793003
C       -3.40672651       3.40052651       3.40339335
C       -2.50784021       2.49962496       3.98584031
C       -1.69953404       1.69460235       3.17911573
C       -1.79166628       1.79166628       1.79166628
C       -2.68333990       2.68657636       1.20279327
C       -3.49159328       3.49164456       2.00930074
C       -6.23568174       4.78322536       5.50380158
S       -7.82377176       4.39671269       6.09423449
C       -7.92027163       5.90944517       6.88357782
C       -6.77046489       6.63802588       6.67635678
N       -5.82390683       5.98292978       5.89013398
C       -6.45454171       7.96039433       7.17311792
C       -5.27164356       8.54360790       6.89012666
C       -4.91347113       9.86654633       7.37247536
C       -3.68755554      10.46700661       7.07625815
C       -3.40355570      11.74196056       7.57507406
C       -4.33007366      12.42362714       8.36653259
C       -5.55369354      11.82555890       8.66212176
C       -5.82490972      10.55523423       8.15886451
O       -7.06430257       9.98174452       8.47247952
C       -7.43907059       8.71763943       8.01898425
O       -8.54307381       8.27765346       8.32400644
H       -3.85416983       5.19800888       4.50594406
H       -2.43188422       2.41107130       5.06740911
H       -1.00820380       0.99430231       3.64079457
H       -2.76053835       2.76110673       0.12115598
H       -4.18840494       4.18210877       1.53901416
H       -8.81067600       6.15762735       7.44316217
H       -4.53220576       8.02988930       6.28111835
H       -2.95500525       9.94950700       6.46191325
H       -4.10839912      13.41474350       8.75447610
H       -6.28577359      12.34255501       9.27626802
C       -2.13949669      12.36024341       7.26932723
C       -1.08084726      12.87805530       7.01326425
Br       0.63089932      13.71531332       6.59923207
N        6.85039020      -2.24458268       2.99163928
C        6.29558378      -3.07099695       3.58962534
C        5.61760850      -4.09131144       4.33013845
C        4.27743079      -4.23500601       4.23789882
C        3.40711473      -3.40146387       3.40206777
C        2.86374330      -2.21698439       3.91257779
C        2.05518749      -1.41150052       3.10656411
C        1.79166628      -1.79166628       1.79166628
C        2.32777975      -2.96994475       1.27498503
C        3.13622454      -3.77550093       2.08081311
C        6.33836892      -4.99344122       5.19089853
S        8.06542077      -4.89322699       5.35607118
C        8.05681180      -6.20496643       6.45151640
C        6.77326584      -6.66243592       6.64914579
N        5.80933099      -5.96257664       5.92506297
C        6.33843972      -7.75015055       7.49946370
C        5.03307148      -8.07584163       7.59646500
C        4.55446973      -9.15673006       8.44129304
C        3.20168557      -9.49105587       8.53807885
C        2.80681540     -10.54090278       9.37287214
C        3.74784376     -11.26024391      10.11214571
C        5.09783431     -10.92776466      10.01577525
C        5.47858619      -9.88010954       9.18031273
O        6.84320353      -9.57135264       9.10397043
C        7.33325100      -8.54491280       8.29753047
O        8.54138343      -8.33240769       8.27094258
H        3.75307858      -5.00837258       4.79667162
H        3.06770015      -1.90737253       4.93529194
H        1.64199279      -0.49083205       3.51047585
H        2.12767447      -3.26652072       0.24860587
H        3.55445624      -4.68977048       1.66530114
H        8.99089217      -6.54747893       6.87309443
H        4.28167713      -7.52625797       7.03527830
H        2.45629119      -8.94054673       7.96958758
H        3.44006732     -12.07611813      10.76143328
H        5.84282992     -11.47771989      10.58404681
C        1.41203010     -10.88487205       9.47216518
C        0.24389741     -11.17294631       9.55532309
Br      -1.64487435     -11.63873802       9.68978241
C       -0.00445707       0.01189536      -1.78238275
H       -0.66409135       0.67374010      -2.43557963
H        0.65740317      -0.63156657      -2.45157240
C       -0.90989263      -0.90692880      -0.91072765
C        0.90977584       0.90977584      -0.90977584
C       -0.00465871       1.77757030       0.00794375
H       -0.66225468       2.44313916      -0.64384735
H        0.64322798       2.43503045       0.67728295
C       -1.78241447       0.00034974      -0.00472694
H       -2.45427497      -0.65498947       0.64260836
H       -2.43311707       0.67328779      -0.65473579
C       -0.91132561       0.90220522       0.91563759
C       -0.01476271      -0.02253852       1.78660255
H       -0.67934791      -0.69751639       2.42135241
H        0.63392994       0.61504881       2.47327442
C        0.01484550      -1.77751727      -0.01636693
H        0.67870853      -2.42144646      -0.68295456
H       -0.62264859      -2.45592969       0.64226336
C        1.78714474       0.01002794       0.00389507
H        2.44202412       0.67113390       0.66197326
H        2.45385902      -0.65136977      -0.64189061
C        0.91606151      -0.90478549       0.90901405
