105
Properties=species:S:1:pos:R:3 pbc="F F F"
C        0.00000000       0.00000000       0.00000000
C        0.88144982       0.88144982      -0.88144982
C        0.89399157       2.26042148      -0.69132584
C        1.70542240       3.06504768      -1.49835742
C        2.51707630       2.49994532      -2.49352203
C        2.47130140       1.11122213      -2.68230435
C        1.66462565       0.30260637      -1.87512903
C        3.33178257       3.39767859      -3.33064933
C        4.50647973       3.10981219      -3.90619756
N        5.20634650       1.93406660      -3.85141365
C        6.24848683       2.19728199      -4.57112076
O        6.35670033       3.43422929      -5.11824199
C        5.24426527       4.11365118      -4.72588386
O        4.94331740       5.25944066      -4.99017485
C        7.31509674       1.28951543      -4.85780154
C        7.52181964      -0.01676147      -4.45701232
C        8.73663187      -0.43821981      -5.04904694
C        9.19958449       0.63544009      -5.77438516
Br      10.77323600       0.65409554      -6.77525061
O        8.34578670       1.68777052      -5.66347992
H        0.27942113       2.71990371       0.07804027
H        1.70145269       4.14079507      -1.33286825
H        3.06088200       0.63459470      -3.46146396
H        1.65605922      -0.77221812      -2.03512466
H        2.92276391       4.39900887      -3.46284751
H        6.86569322      -0.59035419      -3.81482707
H        9.21161022      -1.40530618      -4.95742709
C       -0.88144982      -0.88144982      -0.88144982
C       -1.02736433      -0.58469879      -2.23367578
C       -1.83298150      -1.39637819      -3.03946781
C       -2.49055884      -2.51472185      -2.50526296
C       -2.34738325      -2.78137276      -1.13607186
C       -1.53976854      -1.97494811      -0.32764440
C       -3.34644097      -3.31893043      -3.39473909
C       -3.60139219      -4.62978476      -3.29131253
N       -3.13481368      -5.50753481      -2.34947826
C       -3.68393882      -6.62139106      -2.71155969
O       -4.47960565      -6.61891637      -3.81064960
C       -4.48069534      -5.33633246      -4.26677251
O       -5.06342772      -4.89415067      -5.23535452
C       -3.53644866      -7.87870421      -2.04726084
C       -2.80341771      -8.22921675      -0.92943603
C       -3.03450201      -9.60770892      -0.70524807
C       -3.89312402     -10.01672271      -1.69956302
Br      -4.55005505     -11.75047550      -1.90205160
O       -4.20186433      -8.97640716      -2.51876565
H       -0.52191822       0.27190858      -2.67127493
H       -1.93308714      -1.14768426      -4.09434460
H       -2.86283048      -3.61979952      -0.67431066
H       -1.43704638      -2.21021810       0.72829871
H       -3.78954066      -2.76988850      -4.22519112
H       -2.18027559      -7.56066165      -0.34922886
H       -2.62562180     -10.22270441       0.08459508
C       -0.88144982       0.88144982       0.88144982
C       -0.65179501       0.94077757       2.25316632
C       -1.45902815       1.75213258       3.05766677
C       -2.49404034       2.51724804       2.49925527
C       -2.72164338       2.42446320       1.11872129
C       -1.91452487       1.61774391       0.31009227
C       -3.32873544       3.33378774       3.39758732
C       -3.94730603       4.48212170       3.09306176
N       -3.94768268       5.14778161       1.89636247
C       -4.69030533       6.17597864       2.15060560
O       -5.20424449       6.30522043       3.39970669
C       -4.75918975       5.22549015       4.09912041
O       -4.98094780       4.95141721       5.26056790
C       -5.03503868       7.20616030       1.22121474
C       -4.67874473       7.38525348      -0.10192772
C       -5.31887006       8.56919014      -0.54060120
C       -6.02623326       9.04279630       0.54038019
Br      -7.07278413      10.58655205       0.54324597
O       -5.85929092       8.22446037       1.61328585
H        0.14864739       0.36285133       2.70708063
H       -1.26230396       1.78517198       4.12764007
H       -3.53162103       2.97662362       0.64869601
H       -2.10535830       1.57236653      -0.75875906
H       -3.41947899       2.95125299       4.41388831
H       -4.03414899       6.73119214      -0.67517503
H       -5.26964856       9.01747291      -1.52339034
C        0.88144982      -0.88144982       0.88144982
C        2.13376405      -1.28510259       0.42687225
C        2.94053730      -2.08990346       1.23838674
C        2.50884917      -2.48958172       2.51211276
C        1.23468943      -2.09004130       2.94009714
C        0.42647423      -1.28212867       2.13375815
C        3.38914818      -3.35812402       3.31283830
C        3.46564161      -3.40769846       4.64914941
N        2.75331358      -2.67655785       5.56195532
C        3.21151474      -3.11659307       6.68878176
O        4.17385159      -4.07278822       6.66253180
C        4.41079509      -4.32670158       5.34630365
O        5.20385669      -5.11495756       4.87411866
C        2.78751419      -2.68936074       7.98553878
C        1.85471409      -1.74280827       8.36454813
C        1.82756440      -1.74001754       9.77987706
C        2.74566056      -2.68334225      10.18040694
Br       3.13369613      -3.11636869      11.95251733
O        3.33377242      -3.26302534       9.10023938
H        2.49242685      -0.98185689      -0.55299917
H        3.91658972      -2.39378619       0.86474009
H        0.84807636      -2.40166262       3.90720167
H       -0.55243695      -0.97738731       2.49401540
H        4.04937134      -4.00242497       2.73282398
H        1.26613073      -1.13297210       7.69106327
H        1.21295958      -1.12655263      10.42421891
