126
Properties=species:S:1:pos:R:3 pbc="F F F"
C        1.79135384       1.79135384      -1.79135384
C        1.80389560       3.17032550      -1.60122987
C        2.61532643       3.97495170      -2.40826144
C        3.42698032       3.40984935      -3.40342605
C        3.38120542       2.02112615      -3.59220837
C        2.57452968       1.21251040      -2.78503305
C        4.24168659       4.30758262      -4.24055336
C        5.41638376       4.01971621      -4.81610159
N        6.11625052       2.84397062      -4.76131768
C        7.15839085       3.10718601      -5.48102478
O        7.26660435       4.34413332      -6.02814602
C        6.15416930       5.02355521      -5.63578788
O        5.85322143       6.16934468      -5.90007887
C        8.22500076       2.19941946      -5.76770556
C        8.43172367       0.89314255      -5.36691634
C        9.64653590       0.47168422      -5.95895096
C       10.10948851       1.54534412      -6.68428919
Br      11.68314003       1.56399956      -7.68515464
O        9.25569072       2.59767455      -6.57338394
H        1.18932515       3.62980774      -0.83186375
H        2.61135671       5.05069909      -2.24277228
H        3.97078602       1.54449873      -4.37136798
H        2.56596325       0.13768591      -2.94502869
H        3.83266794       5.30891289      -4.37275153
H        7.77559725       0.31954983      -4.72473109
H       10.12151424      -0.49540216      -5.86733112
C       -1.79135384      -1.79135384      -1.79135384
C       -2.04441040      -3.10936921      -1.42167136
C       -2.85537144      -3.91345494      -2.22971320
C       -3.42747714      -3.40654130      -3.40623729
C       -3.14055955      -2.08324720      -3.77073319
C       -2.33364830      -1.27459512      -2.96382971
C       -4.25212251      -4.30599136      -4.23170870
C       -5.27921943      -3.95601768      -5.01696444
N       -5.78795679      -2.70276380      -5.23081824
C       -6.75193864      -2.93238095      -6.06228206
O       -6.97722360      -4.21359452      -6.44806557
C       -6.04750082      -4.96692705      -5.79908452
O       -5.89624740      -6.16987167      -5.85652591
C       -7.61540877      -1.94528117      -6.63143585
C       -7.66778623      -0.57667444      -6.44732189
C       -8.71107061      -0.09314995      -7.27295052
C       -9.23401239      -1.19464802      -7.91046140
Br     -10.64209094      -1.15729423      -9.13290905
O       -8.57768869      -2.32199684      -7.52706368
H       -1.61828504      -3.52164114      -0.51107045
H       -3.04163572      -4.94082117      -1.92237119
H       -3.53823776      -1.65908980      -4.68932518
H       -2.13600034      -0.24896194      -3.26371556
H       -3.99035286      -5.36150908      -4.16247042
H       -7.02266324      -0.00348578      -5.79372914
H       -9.03726664       0.93140400      -7.38758056
C       -1.79135384       1.79135384       1.79135384
C       -2.78759924       1.21410223       2.57374950
C       -3.59133565       2.02416188       3.38304205
C       -3.40115878       3.41358788       3.42550906
C       -2.40687013       3.97564918       2.61202063
C       -1.59839079       3.16918365       1.80449869
C       -4.29359192       4.22012649       4.27610416
C       -3.99354178       5.37604813       4.88261165
N       -2.80925660       6.06275510       4.84952712
C       -3.06425602       7.09223436       5.59011126
O       -4.29846618       7.19622984       6.14418767
C       -4.98559411       6.09567004       5.73224824
O       -6.12925832       5.79144706       6.00193960
C       -2.15497430       8.15650935       5.88064214
C       -0.84245064       8.35360582       5.49572610
C       -0.43193106       9.58527501       6.05996500
C       -1.51698743      10.06578996       6.75634443
Br      -1.55588947      11.67064212       7.70576263
O       -2.56557186       9.20621946       6.65495789
H       -2.94857662       0.13952631       2.56289371
H       -4.36395031       1.55305498       3.98782278
H       -2.24513161       5.05048360       2.59103752
H       -0.82760152       3.62914516       1.19193116
H       -5.28778202       3.80010460       4.42644574
H       -0.25927481       7.68271152       4.87789183
H        0.53468323      10.06098086       5.96714557
C        1.79135384      -1.79135384       1.79135384
C        2.79983372      -1.21615821       2.55945903
C        3.60356368      -2.02616727       3.36880862
C        3.40126820      -3.41336744       3.42562008
C        2.39459906      -3.97367197       2.62626891
C        1.58611027      -3.16719765       1.81876520
C        4.29409491      -4.22029009       4.27543756
C        3.98916820      -5.36792328       4.89511008
N        2.79849119      -6.04410327       4.87894437
C        3.05092712      -7.06914338       5.62653115
O        4.28913730      -7.17936027       6.17038611
C        4.98238044      -6.08885084       5.74228110
O        6.13114467      -5.79262204       5.99887828
C        2.13477138      -8.12244493       5.93490948
C        0.81707913      -8.31105886       5.56364458
C        0.40062509      -9.53380977       6.14273621
C        1.48759480     -10.01787668       6.83365033
Br       1.52066523     -11.61439571       7.79723328
O        2.54291712      -9.16882514       6.71500695
H        2.97038238      -0.14323196       2.53738230
H        4.38585959      -1.55667467       3.96229381
H        2.22299748      -5.04713670       2.61651856
H        0.80566922      -3.62563255       1.21737607
H        5.29335551      -3.80798815       4.41298870
H        0.23437859      -7.64048406       4.94501552
H       -0.57104067     -10.00152351       6.06296036
C       -0.00445707       0.01189536      -1.78238275
H       -0.66409135       0.67374010      -2.43557963
H        0.65740317      -0.63156657      -2.45157240
C       -0.90989263      -0.90692880      -0.91072765
C        0.90977584       0.90977584      -0.90977584
C       -0.00465871       1.77757030       0.00794375
H       -0.66225468       2.44313916      -0.64384735
H        0.64322798       2.43503045       0.67728295
C       -1.78241447       0.00034974      -0.00472694
H       -2.45427497      -0.65498947       0.64260836
H       -2.43311707       0.67328779      -0.65473579
C       -0.91132561       0.90220522       0.91563759
C       -0.01476271      -0.02253852       1.78660255
H       -0.67934791      -0.69751639       2.42135241
H        0.63392994       0.61504881       2.47327442
C        0.01484550      -1.77751727      -0.01636693
H        0.67870853      -2.42144646      -0.68295456
H       -0.62264859      -2.45592969       0.64226336
C        1.78714474       0.01002794       0.00389507
H        2.44202412       0.67113390       0.66197326
H        2.45385902      -0.65136977      -0.64189061
C        0.91606151      -0.90478549       0.90901405
