113
Properties=species:S:1:pos:R:3 pbc="F F F"
C        0.00000000       0.00000000       0.00000000
C        0.88144982       0.88144982      -0.88144982
C        0.89399157       2.26042148      -0.69132584
C        1.70542240       3.06504768      -1.49835742
C        2.51707630       2.49994532      -2.49352203
C        2.47130140       1.11122213      -2.68230435
C        1.66462565       0.30260637      -1.87512903
C        3.33178257       3.39767859      -3.33064933
C        4.50647973       3.10981219      -3.90619756
N        5.20634650       1.93406660      -3.85141365
C        6.24848683       2.19728199      -4.57112076
O        6.35670033       3.43422929      -5.11824199
C        5.24426527       4.11365118      -4.72588386
O        4.94331740       5.25944066      -4.99017485
C        7.31509674       1.28951543      -4.85780154
C        7.52181964      -0.01676147      -4.45701232
C        8.73663187      -0.43821981      -5.04904694
C        9.19958449       0.63544009      -5.77438516
O        8.34578670       1.68777052      -5.66347992
H        0.27942113       2.71990371       0.07804027
H        1.70145269       4.14079507      -1.33286825
H        3.06088200       0.63459470      -3.46146396
H        1.65605922      -0.77221812      -2.03512466
H        2.92276391       4.39900887      -3.46284751
H        6.86569322      -0.59035419      -3.81482707
H        9.21161022      -1.40530618      -4.95742709
C       10.41458826       0.64984381      -6.54714539
C       11.43215392       0.66190693      -7.19433208
Br      13.07747153       0.68141196      -8.24077821
C       -0.88144982      -0.88144982      -0.88144982
C       -1.02740790      -0.58466691      -2.23366408
C       -1.83302492      -1.39634631      -3.03945627
C       -2.49055859      -2.51472146      -2.50526360
C       -2.34733977      -2.78140477      -1.13608333
C       -1.53972501      -1.97498014      -0.32765590
C       -3.34644298      -3.31892915      -3.39473837
C       -3.60135682      -4.62979296      -3.29133971
N       -3.13473023      -5.50755556      -2.34954096
C       -3.68383550      -6.62141675      -2.71163732
O       -4.47953144      -6.61893404      -3.81070613
C       -4.48066708      -5.33633812      -4.26679512
O       -5.06343673      -4.89414613      -5.23535004
C       -3.53629456      -7.87874356      -2.04737559
C       -2.80322480      -8.22926627      -0.92957942
C       -3.03426676      -9.60777047      -0.70542178
C       -3.89290424     -10.01678067      -1.69972484
O       -4.20169369      -8.97645163      -2.51889182
H       -0.52199600       0.27196538      -2.67125395
H       -1.93316501      -1.14762714      -4.09432385
H       -2.86275264      -3.61985735      -0.67433067
H       -1.43696873      -2.21027531       0.72827828
H       -3.78957912      -2.76987699      -4.22516417
H       -2.18008502      -7.56071003      -0.34937104
H       -2.62534942     -10.22277602       0.08439432
C       -4.40008420     -11.35540664      -1.85608663
C       -4.82484742     -12.47650588      -1.98703963
Br      -5.51165361     -14.28922855      -2.19877955
C       -0.88144982       0.88144982       0.88144982
C       -0.31350460       1.60795120       1.92428310
C       -1.12336501       2.41746258       2.72799992
C       -2.50282949       2.51601864       2.49169553
C       -3.05674433       1.75785322       1.45023033
C       -2.25024333       0.95040196       0.64171576
C       -3.31091552       3.36359971       3.38559526
C       -4.43380591       4.02095409       3.06772948
N       -5.07854061       4.05322717       1.86005897
C       -6.09033379       4.82085433       2.10570145
O       -6.21915721       5.33543120       3.35458320
C       -5.15867068       4.86104309       4.06408654
O       -4.88634619       5.08013597       5.22645075
C       -7.11083513       5.18034344       1.17123514
C       -7.27410893       4.84816307      -0.16020152
C       -8.47016749       5.46981091      -0.59251940
C       -8.96481999       6.14509304       0.49949671
O       -8.14722515       5.97702106       1.57279093
H        0.75362886       1.55321050       2.12170294
H       -0.65957281       2.97806196       3.53748123
H       -4.12520594       1.78082967       1.25090505
H       -2.70323733       0.38156471      -0.16583628
H       -2.92171261       3.46450758       4.39840010
H       -6.60451692       4.22724083      -0.74159166
H       -8.91398785       5.42739150      -1.57764821
C      -10.17820050       6.92041651       0.51296046
C      -11.19440667       7.56974990       0.52423635
Br     -12.83752611       8.61966709       0.54246850
C        0.88144982      -0.88144982       0.88144982
C        2.12772051      -1.29699862       0.42101977
C        2.93454061      -2.10176666       1.23252023
C        2.50900581      -2.48955999       2.51197784
C        1.24067613      -2.07815525       2.94599649
C        0.43247195      -1.27022958       2.13965953
C        3.38882995      -3.35865552       3.31262503
C        3.47432130      -3.39948151       4.64868668
N        2.77348985      -2.65705483       5.56128207
C        3.23649343      -3.09244716       6.68794898
O        4.19195892      -4.05550861       6.66170409
C        4.41792194      -4.32020831       5.34567007
O        5.20216799      -5.11725200       4.87351293
C        2.82455002      -2.65326389       7.98459981
C        1.90102000      -1.69760123       8.36344926
C        1.88378960      -1.68479093       9.77887848
C        2.79809076      -2.63170904      10.17960994
O        3.37459349      -3.22297917       9.09946448
H        2.48161895      -1.00308154      -0.56341591
H        3.90582186      -2.41505604       0.85423811
H        0.85868132      -2.38034074       3.91791859
H       -0.54175559      -0.95615460       2.50456675
H        4.04048968      -4.01157101       2.73255960
H        1.31199046      -1.08835575       7.68981988
H        1.27798173      -1.06258226      10.42316714
C        3.10492251      -2.95862168      11.54803327
C        3.36189410      -3.23241102      12.69408780
Br       3.77739543      -3.67510521      14.54716106
