178
Properties=species:S:1:pos:R:3 pbc="F F F"
C        1.79076940       1.79076940      -1.79076940
C        2.91066192       2.40809797      -1.25199138
C        3.72436180       3.20791590      -2.06188702
C        3.43843583       3.40969948      -3.42168962
N        4.28419050       4.19687502      -4.24608098
C        5.32268782       5.02068706      -3.85229345
O        5.74006629       5.16222479      -2.70834397
C        5.90203020       5.90350000      -4.91126697
C        6.25339424       7.20053274      -4.48761992
C        6.78184184       8.13230995      -5.38179057
C        6.96953746       7.78139337      -6.71290115
C        6.63731752       6.49646108      -7.14678194
C        6.11003322       5.55296734      -6.25240256
C        2.28278739       2.78683657      -3.94847537
C        1.47597603       1.97099609      -3.13120273
C        1.83214741       2.88317177      -5.36182933
O        1.47772255       1.84902056      -5.92537918
C        1.77707651       4.16394737      -6.11690973
C        1.81737594       4.09825965      -7.51681233
C        1.82668205       5.26680201      -8.27803333
C        1.79207540       6.50764140      -7.64567784
C        1.72484399       6.58042046      -6.25416065
C        1.70050794       5.41210850      -5.48811592
H        3.17550656       2.26927704      -0.20592115
H        4.60308076       3.63931805      -1.59252891
H        4.08225450       4.19723845      -5.23932533
H        6.11268060       7.49146908      -3.44704713
H        7.04893474       9.12770858      -5.03391540
H        7.38571212       8.50261775      -7.41284009
H        6.80786776       6.23647054      -8.18996110
H        0.60204947       1.47731755      -3.55486725
H        1.84951653       3.13288191      -8.02039065
H        1.86010407       5.20602131      -9.36387666
H        1.80461106       7.41834661      -8.23901441
H        1.68545734       7.55211536      -5.76563717
H        1.63141403       5.49876297      -4.40679675
C        5.85788116       4.24069495      -6.78902209
C        5.64670382       3.14166683      -7.23844095
Br       5.30524791       1.36463130      -7.96511324
C       -1.79076940      -1.79076940      -1.79076940
C       -1.33648171      -2.19677852      -3.03749105
C       -2.13987478      -3.01286007      -3.84142986
C       -3.41009487      -3.43869922      -3.42103085
N       -4.20816354      -4.29171063      -4.22727233
C       -4.00269153      -4.64452519      -5.54845162
O       -3.04202787      -4.32764522      -6.24096195
C       -5.12042737      -5.38036720      -6.21600260
C       -5.35726498      -5.02545630      -7.55882561
C       -6.38668789      -5.61895298      -8.29030149
C       -7.19396277      -6.57820618      -7.69166303
C       -6.96552765      -6.94979769      -6.36523521
C       -5.92940905      -6.36080908      -5.62518499
C       -3.86329038      -2.99989345      -2.15491551
C       -3.04346822      -2.19042959      -1.34427704
C       -5.17233123      -3.35712702      -1.54769026
O       -5.18522800      -3.70021879      -0.36667550
C       -6.45974530      -3.30647849      -2.29170982
C       -7.51792723      -4.09547119      -1.81904952
C       -8.73082351      -4.13432475      -2.50636913
C       -8.89515113      -3.38257344      -3.66767006
C       -7.85582455      -2.57448565      -4.12911490
C       -6.64398570      -2.52115308      -3.43559359
H       -0.35378465      -1.89945442      -3.39746568
H       -1.71874308      -3.32364274      -4.79254189
H       -5.05644688      -4.65463723      -3.80773416
H       -4.73303247      -4.27508054      -8.04308380
H       -6.55129000      -5.33259045      -9.32667827
H       -7.99469143      -7.04734457      -8.25913396
H       -7.59867736      -7.71533518      -5.92028687
H       -3.39424297      -1.87905626      -0.36093505
H       -7.39759554      -4.69055989      -0.91463365
H       -9.54575500      -4.75112389      -2.13312316
H       -9.83881716      -3.41706676      -4.20608816
H       -7.99365557      -1.97960015      -5.02995414
H       -5.85750051      -1.87039582      -3.80907741
C       -5.74244148      -6.85830637      -4.28685037
C       -5.58585614      -7.27496035      -3.16599512
Br      -5.33267088      -7.94865460      -1.35366698
C       -1.79076940       1.79076940       1.79076940
C       -1.34283091       2.18407616       3.04384421
C       -2.14613368       3.00015294       3.84787810
C       -3.40996404       3.43861627       3.42124463
N       -4.20768523       4.29156381       4.22789746
C       -4.00950234       4.63298996       5.55317604
O       -3.05644007       4.30377557       6.25041941
C       -5.12670504       5.37220234       6.21788978
C       -5.37623434       5.00909664       7.55621591
C       -6.40666711       5.60483416       8.28444109
C       -7.20227391       6.57453796       7.68702012
C       -6.96114541       6.95426435       6.36515078
C       -5.92391953       6.36304825       5.62843534
C       -3.85690904       3.01265078       2.14853952
C       -3.03707865       2.20311802       1.33797818
C       -5.15866810       3.38419318       1.53428723
O       -5.16015994       3.73614846       0.35581390
C       -6.45196367       3.33766176       2.26830817
C       -7.50067437       4.13805793       1.79371563
C       -8.71836551       4.18088691       2.47226498
C       -8.89698056       3.42176985       3.62664422
C       -7.86718216       2.60250441       4.08973852
C       -6.65060963       2.54525131       3.40487144
H       -0.36509859       1.87672524       3.40888091
H       -1.72984213       3.30068621       4.80439938
H       -5.05007685       4.66394924       3.80479219
H       -4.76124851       4.25048148       8.03946683
H       -6.58115815       5.31201134       9.31738923
H       -8.00372109       7.04543012       8.25201875
H       -7.58522979       7.72781479       5.92125482
H       -3.38278001       1.90170656       0.34974771
H       -7.36914363       4.73893981       0.89470564
H       -9.52586546       4.80653635       2.09760024
H       -9.84437286       3.45932864       4.15827057
H       -8.01618294       2.00198350       4.98504343
H       -5.87180880       1.88585707       3.77930787
C       -5.72323037       6.86907278       4.29529506
C       -5.55515320       7.29286833       3.17879006
Br      -5.28338664       7.97810990       1.37349592
C        1.79076940      -1.79076940       1.79076940
C        2.73586529      -2.62463354       1.21025245
C        3.55075568      -3.42518033       2.01822871
C        3.43962932      -3.41231735       3.41787826
N        4.28964697      -4.20323243       4.23426710
C        5.14978991      -5.21002534       3.83585308
O        5.37797247      -5.55179261       2.68086997
C        5.75990610      -6.02733839       4.92955268
C        5.88201174      -7.40401056       4.65552459
C        6.41242990      -8.28270687       5.60080559
C        6.83127259      -7.79866683       6.83389256
C        6.72791512      -6.43533758       7.11730784
C        6.20007394      -5.54533124       6.16999794
C        2.45840369      -2.56939659       3.99029906
C        1.65122243      -1.75502870       3.17192372
C        2.20642343      -2.42271646       5.44800862
O        2.06849034      -1.28620075       5.89743120
C        2.10041023      -3.57783624       6.37968713
C        2.34874187      -3.34410455       7.73960151
C        2.32084234      -4.39749382       8.65318124
C        2.04114377      -5.68979496       8.21445590
C        1.76668626      -5.92558191       6.86715693
C        1.77911018      -4.87086867       5.95075353
H        2.86336976      -2.65706750       0.13026748
H        4.29226775      -4.03327975       1.50938021
H        4.23364538      -4.05048374       5.23468915
H        5.55841614      -7.79957241       3.69320826
H        6.50036746      -9.34170185       5.36848940
H        7.24996305      -8.47884977       7.57235714
H        7.07730755      -6.07410562       8.08288623
H        0.91565488      -1.09218823       3.62639117
H        2.57313207      -2.33798604       8.09167098
H        2.51681529      -4.20685802       9.70632874
H        2.02459793      -6.51150256       8.92587158
H        1.53654922      -6.93498208       6.53167856
H        1.54552953      -5.08123010       4.91021411
C        6.19346040      -4.15378710       6.54035071
C        6.18792156      -2.98836889       6.85052115
Br       6.17896573      -1.10398620       7.35204052
C       -0.00445707       0.01189536      -1.78238275
H       -0.66409135       0.67374010      -2.43557963
H        0.65740317      -0.63156657      -2.45157240
C       -0.90989263      -0.90692880      -0.91072765
C        0.90977584       0.90977584      -0.90977584
C       -0.00465871       1.77757030       0.00794375
H       -0.66225468       2.44313916      -0.64384735
H        0.64322798       2.43503045       0.67728295
C       -1.78241447       0.00034974      -0.00472694
H       -2.45427497      -0.65498947       0.64260836
H       -2.43311707       0.67328779      -0.65473579
C       -0.91132561       0.90220522       0.91563759
C       -0.01476271      -0.02253852       1.78660255
H       -0.67934791      -0.69751639       2.42135241
H        0.63392994       0.61504881       2.47327442
C        0.01484550      -1.77751727      -0.01636693
H        0.67870853      -2.42144646      -0.68295456
H       -0.62264859      -2.45592969       0.64226336
C        1.78714474       0.01002794       0.00389507
H        2.44202412       0.67113390       0.66197326
H        2.45385902      -0.65136977      -0.64189061
C        0.91606151      -0.90478549       0.90901405
