118
Properties=species:S:1:pos:R:3 pbc="F F F"
C        1.79111397       1.79111397      -1.79111397
C        1.21292560       2.78514658      -2.57467391
C        2.02371917       3.59001810      -3.38101704
C        3.41390687       3.40794561      -3.40938636
C        3.97788444       2.40386974      -2.61932607
C        3.16915993       1.59705091      -1.80979593
N        4.15546295       4.25894952      -4.25627954
C        5.53096831       4.30060740      -4.40635649
O        6.35763272       3.65061327      -3.77910838
C        6.02885157       5.26896887      -5.41414289
C        7.27445095       5.85598489      -5.21522393
N        7.82609394       6.76254415      -6.06142327
C        7.10880750       7.07808522      -7.16514234
C        5.87034607       6.52548653      -7.45709234
Br       4.94584499       7.01023057      -9.02709877
C        5.31947178       5.60200244      -6.57193050
H        0.13757962       2.94229426      -2.56646712
H        1.54898554       4.35966708      -3.98412498
H        5.04744108       2.21706439      -2.60880557
H        3.63019539       0.82267214      -1.20199204
H        3.60981444       4.94752346      -4.75671961
H        7.88002972       5.61586965      -4.34350662
H        7.57937353       7.80322360      -7.82372519
H        4.36907943       5.13258440      -6.80456175
C       -1.79111397      -1.79111397      -1.79111397
C       -3.16174150      -1.55871971      -1.85228487
C       -3.96566607      -2.36864378      -2.66044446
C       -3.40696419      -3.41300571      -3.41126894
C       -2.03014037      -3.63472151      -3.33621838
C       -1.22207175      -2.82484943      -2.52908559
N       -4.29150672      -4.18535737      -4.19382791
C       -3.96494139      -5.22275563      -5.05023518
O       -2.83972113      -5.61306153      -5.33457172
C       -5.11713636      -5.88943709      -5.70538987
C       -4.93919043      -6.43263894      -6.97383040
N       -5.92183825      -7.05414739      -7.67407571
C       -7.12834529      -7.15495693      -7.06873284
C       -7.39049689      -6.66460927      -5.79781878
Br      -9.09775129      -6.86263232      -5.02279072
C       -6.36973175      -6.02441032      -5.09926265
H       -3.61385828      -0.75421801      -1.27826472
H       -5.03341326      -2.16762760      -2.69173674
H       -1.54802210      -4.43311817      -3.89217077
H       -0.15260050      -3.01492733      -2.48733174
H       -5.25980045      -3.89655103      -4.15770603
H       -3.97910465      -6.37713186      -7.48316949
H       -7.89190139      -7.66079857      -7.65362236
H       -6.54794314      -5.66867932      -4.08960311
C       -1.79111397       1.79111397       1.79111397
C       -1.22308693       2.83577604       2.51388311
C       -2.03381683       3.64048324       3.32045424
C       -3.41384430       3.40777862       3.40961592
C       -3.96753409       2.35336686       2.68017932
C       -3.15891377       1.54651394       1.87057906
N       -4.15571346       4.26271665       4.25226190
C       -5.52522178       4.25869552       4.45401490
O       -6.34888583       3.55435128       3.88411726
C       -6.02231522       5.24618717       5.44346093
C       -7.29635361       5.77802729       5.27127887
N       -7.85077100       6.69551649       6.10377388
C       -7.10550643       7.08031913       7.16620949
C       -5.83645327       6.58619448       7.43027718
Br      -4.87340965       7.16582474       8.94393995
C       -5.28360315       5.65026225       6.55953933
H       -0.15572012       3.03259909       2.45802180
H       -1.56712405       4.45020617       3.87544737
H       -5.02866797       2.12641811       2.71822496
H       -3.61192017       0.73239799       1.31054142
H       -3.61889869       4.99014540       4.70501342
H       -7.92432623       5.48173476       4.43334500
H       -7.57893253       7.81239336       7.81499644
H       -4.30765097       5.22611686       6.77245775
C        1.79111397      -1.79111397       1.79111397
C        3.16422596      -1.57038502       1.83813511
C        3.96813531      -2.38027129       2.64634770
C        3.40694922      -3.41296730       3.41132232
C        2.02761213      -3.62308585       3.35038228
C        1.21956772      -2.81320567       2.54323338
N        4.29157372      -4.18622649       4.19289179
C        3.96350608      -5.21309282       5.06133330
O        2.83746240      -5.59085813       5.35903383
C        5.11556053      -5.88419254       5.71221026
C        4.94411915      -6.41459148       6.98694914
N        5.92743873      -7.03861693       7.68400571
C        7.12758076      -7.15548018       7.06897412
C        7.38273342      -6.67870176       5.79148975
Br       9.08121823      -6.89871840       5.00323771
C        6.36147926      -6.03563350       5.09629197
H        3.61829347      -0.77502470       1.25302284
H        5.03784852      -2.18848838       2.66644069
H        1.54343864      -4.41223409       3.91763831
H        0.14813397      -2.99412803       2.51259757
H        5.26201554      -3.90637015       4.14567182
H        3.98912627      -6.34606409       7.50421564
H        7.89181948      -7.66291653       7.65158631
H        6.53383477      -5.69041255       4.08197826
C       -0.00445707       0.01189536      -1.78238275
H       -0.66409135       0.67374010      -2.43557963
H        0.65740317      -0.63156657      -2.45157240
C       -0.90989263      -0.90692880      -0.91072765
C        0.90977584       0.90977584      -0.90977584
C       -0.00465871       1.77757030       0.00794375
H       -0.66225468       2.44313916      -0.64384735
H        0.64322798       2.43503045       0.67728295
C       -1.78241447       0.00034974      -0.00472694
H       -2.45427497      -0.65498947       0.64260836
H       -2.43311707       0.67328779      -0.65473579
C       -0.91132561       0.90220522       0.91563759
C       -0.01476271      -0.02253852       1.78660255
H       -0.67934791      -0.69751639       2.42135241
H        0.63392994       0.61504881       2.47327442
C        0.01484550      -1.77751727      -0.01636693
H        0.67870853      -2.42144646      -0.68295456
H       -0.62264859      -2.45592969       0.64226336
C        1.78714474       0.01002794       0.00389507
H        2.44202412       0.67113390       0.66197326
H        2.45385902      -0.65136977      -0.64189061
C        0.91606151      -0.90478549       0.90901405
