126
Properties=species:S:1:pos:R:3 pbc="F F F"
C        1.79111397       1.79111397      -1.79111397
C        1.21292560       2.78514658      -2.57467391
C        2.02371917       3.59001810      -3.38101704
C        3.41390687       3.40794561      -3.40938636
C        3.97788444       2.40386974      -2.61932607
C        3.16915993       1.59705091      -1.80979593
N        4.15546295       4.25894952      -4.25627954
C        5.53096831       4.30060740      -4.40635649
O        6.35763272       3.65061327      -3.77910838
C        6.02885157       5.26896887      -5.41414289
C        7.27445095       5.85598489      -5.21522393
N        7.82609394       6.76254415      -6.06142327
C        7.10880750       7.07808522      -7.16514234
C        5.87034607       6.52548653      -7.45709234
C        5.31947178       5.60200244      -6.57193050
H        0.13757962       2.94229426      -2.56646712
H        1.54898554       4.35966708      -3.98412498
H        5.04744108       2.21706439      -2.60880557
H        3.63019539       0.82267214      -1.20199204
H        3.60981444       4.94752346      -4.75671961
H        7.88002972       5.61586965      -4.34350662
H        7.57937353       7.80322360      -7.82372519
H        4.36907943       5.13258440      -6.80456175
C        5.16423244       6.89572339      -8.65622879
C        4.57286228       7.20579675      -9.66050556
Br       3.61666675       7.70715917     -11.28433616
C       -1.79111397      -1.79111397      -1.79111397
C       -3.17501835      -1.65327166      -1.74445608
C       -3.97884586      -2.46288606      -2.55302238
C       -3.40686930      -3.41269122      -3.41167832
C       -2.01651962      -3.54038649      -3.44417415
C       -1.20863732      -2.73046084      -2.63690861
N       -4.29160554      -4.19234674      -4.18673973
C       -3.95863760      -5.14472579      -5.13456881
O       -2.83307133      -5.43424869      -5.52003434
C       -5.10770818      -5.84671346      -5.75754167
C       -4.98478058      -6.29045721      -7.07042197
N       -5.97131595      -6.93243032      -7.74631509
C       -7.12233736      -7.15878870      -7.07090901
C       -7.32538564      -6.77380316      -5.75373613
C       -6.30227504      -6.11040433      -5.08072535
H       -3.63756812      -0.92286628      -1.08590660
H       -5.05709837      -2.33670894      -2.49897029
H       -1.52323071      -4.26378104      -4.08629929
H       -0.12865093      -2.84632356      -2.67988508
H       -5.27190955      -3.97619679      -4.06595118
H       -4.06917294      -6.13309176      -7.63714130
H       -7.89029399      -7.67771639      -7.63831194
H       -6.43142983      -5.83607832      -4.03871743
C       -8.57100495      -7.05640234      -5.08877732
C       -9.61421113      -7.29307915      -4.53187431
Br     -11.30098729      -7.67576554      -3.63140925
C       -1.79111397       1.79111397       1.79111397
C       -1.25648030       2.92932656       2.38693921
C       -2.06703655       3.73373727       3.19398048
C       -3.41367236       3.40747682       3.41008966
C       -3.93376809       2.26010009       2.80721208
C       -3.12536147       1.45315837       1.99748693
N       -4.15712277       4.26979498       4.24377425
C       -5.50324731       4.18063284       4.55405205
O       -6.30788445       3.37402347       4.10544644
C       -6.00311149       5.20454928       5.50430255
C       -7.32480546       5.62524531       5.39560900
N       -7.88766716       6.56279517       6.19959903
C       -7.09900446       7.08531917       7.16771142
C       -5.77848400       6.70908758       7.36535336
C       -5.21853495       5.75003271       6.52483706
H       -0.21531664       3.19945592       2.23156845
H       -1.62677088       4.61750727       3.64849945
H       -4.96764636       1.95906160       2.94660308
H       -3.55204419       0.56563061       1.53718477
H       -3.64813801       5.06877673       4.59714278
H       -7.98734204       5.21731807       4.63474588
H       -7.58012787       7.82986753       7.79632692
H       -4.19874744       5.41760041       6.68987773
C       -4.99717602       7.29593940       8.42306919
C       -4.34283059       7.78742779       9.30890621
Br      -3.28480938       8.58212296      10.74122974
C        1.79111397      -1.79111397       1.79111397
C        3.17605249      -1.67486708       1.72182651
C        3.97986549      -2.48440978       2.53047903
C        3.40685533      -3.41261846       3.41176505
C        2.01541012      -3.51883379       3.46683635
C        1.20756749      -2.70889943       2.65953985
N        4.29149873      -4.19392701       4.18526626
C        3.95875024      -5.12698874       5.15219322
O        2.83494809      -5.39374455       5.55866173
C        5.10652897      -5.83689303       5.76854132
C        4.99683623      -6.25917747       7.08964607
N        5.98380594      -6.90584312       7.76041230
C        7.12102017      -7.15954462       7.07147027
C        7.30987790      -6.79727734       5.74576969
C        6.28670296      -6.12859633       5.07810543
H        3.63941859      -0.96138565       1.04553677
H        5.05893581      -2.37532565       2.45851613
H        1.52116824      -4.22508641       4.12705640
H        0.12674988      -2.80780988       2.72029981
H        5.27297278      -3.99440453       4.04668020
H        4.09231879      -6.07961862       7.66746858
H        7.88965207      -7.68150782       7.63516243
H        6.40418954      -5.87176113       4.03027490
C        8.54099081      -7.10847849       5.06671531
C        9.57204787      -7.36910945       4.49800727
Br      11.23917994      -7.79052767       3.57845447
C       -0.00445707       0.01189536      -1.78238275
H       -0.66409135       0.67374010      -2.43557963
H        0.65740317      -0.63156657      -2.45157240
C       -0.90989263      -0.90692880      -0.91072765
C        0.90977584       0.90977584      -0.90977584
C       -0.00465871       1.77757030       0.00794375
H       -0.66225468       2.44313916      -0.64384735
H        0.64322798       2.43503045       0.67728295
C       -1.78241447       0.00034974      -0.00472694
H       -2.45427497      -0.65498947       0.64260836
H       -2.43311707       0.67328779      -0.65473579
C       -0.91132561       0.90220522       0.91563759
C       -0.01476271      -0.02253852       1.78660255
H       -0.67934791      -0.69751639       2.42135241
H        0.63392994       0.61504881       2.47327442
C        0.01484550      -1.77751727      -0.01636693
H        0.67870853      -2.42144646      -0.68295456
H       -0.62264859      -2.45592969       0.64226336
C        1.78714474       0.01002794       0.00389507
H        2.44202412       0.67113390       0.66197326
H        2.45385902      -0.65136977      -0.64189061
C        0.91606151      -0.90478549       0.90901405
