121
Properties=species:S:1:pos:R:3 pbc="F F F"
C        0.00000000       0.00000000       0.00000000
C        3.02330989       4.59193393      -3.52713700
O        3.34802143       3.22786848      -3.29199048
C        2.50081026       2.49735506      -2.49505472
C        1.31774858       3.00318081      -1.93965690
C        0.50742790       2.19540177      -1.13852055
C        0.88229464       0.88229464      -0.88229464
C        2.05784363       0.36502330      -1.42220210
C        2.87198592       1.15464747      -2.25137311
C        4.13248495       0.61720850      -2.80963050
C        4.35336736      -0.63592439      -3.22849122
N        3.48197375      -1.69294731      -3.22712854
C        4.20309303      -2.64676039      -3.71887037
O        5.48386450      -2.36878561      -4.07217680
C        5.67199380      -1.05276333      -3.78447063
O        6.68338416      -0.39919476      -3.94288387
C        3.78503435      -3.99769983      -3.92292148
C        2.57254166      -4.61801537      -3.68391482
C        2.72774547      -5.97514712      -4.05819789
C        4.02271523      -6.10288794      -4.50364971
Br       4.79390882      -7.68329280      -5.12364504
O        4.67082475      -4.91015429      -4.42715733
H        3.81079200       5.01963895      -4.15538116
H        3.00010405       5.16030579      -2.59136351
H        2.07772657       4.68356956      -4.07151019
H        0.99452444       4.02464651      -2.11197930
H       -0.40877572       2.60281167      -0.71852047
H        2.33799787      -0.65982116      -1.19195112
H        4.93768513       1.34585730      -2.90119023
H        1.68797042      -4.13986106      -3.28326672
H        1.98572980      -6.76024074      -4.00583575
C       -3.42177106      -4.62008465      -3.10052511
O       -3.32174588      -3.21991870      -3.32621582
C       -2.50106362      -2.49574966      -2.49640677
C       -1.72626754      -3.06019226      -1.47412650
C       -0.91455524      -2.25523881      -0.67155618
C       -0.88229464      -0.88229464      -0.88229464
C       -1.65021368      -0.30410522      -1.89075013
C       -2.45255182      -1.10089835      -2.72455633
C       -3.28671345      -0.48974578      -3.78286473
C       -2.96970552       0.56678436      -4.54301302
N       -1.82482754       1.31829316      -4.50962060
C       -2.04535158       2.19964471      -5.42949615
O       -3.21877637       2.14078178      -6.10926109
C       -3.89745508       1.08294950      -5.58919552
O       -4.99763494       0.68099365      -5.91043198
C       -1.16591806       3.26110850      -5.80544644
C        0.08684638       3.61057737      -5.33586485
C        0.48740067       4.76069506      -6.05889195
C       -0.54174363       5.04438157      -6.92611494
Br      -0.56850956       6.46629274      -8.13204424
O       -1.54719549       4.14071203      -6.78134434
H       -4.12849721      -5.02682157      -3.83049334
H       -3.81726791      -4.83277970      -2.10172574
H       -2.45802737      -5.11464537      -3.26013359
H       -1.72912607      -4.12693379      -1.27509039
H       -0.31727245      -2.71001350       0.11472953
H       -1.62108873       0.77447428      -2.02351338
H       -4.24022304      -0.98810657      -3.95640304
H        0.63651339       3.09260952      -4.56049900
H        1.41162871       5.31285140      -5.95580491
C       -2.88023833       3.78488978       4.47725271
O       -3.34612584       3.29540552       3.22634904
C       -2.49770094       2.50065637       2.49486273
C       -1.22340782       2.10961796       2.92756052
C       -0.41902349       1.29778688       2.12453985
C       -0.88229464       0.88229464       0.88229464
C       -2.14448444       1.26611301       0.43447158
C       -2.97774569       2.06083998       1.23942084
C       -4.31026821       2.48934232       0.75971342
C       -5.16050616       1.77437788       0.01105016
N       -4.99130597       0.50796780      -0.48311880
C       -6.09266330       0.31468591      -1.13214621
O       -7.01866552       1.30713237      -1.13854220
C       -6.48614160       2.31773011      -0.40017061
O       -6.98614103       3.39744755      -0.15651532
C       -6.43912222      -0.85859142      -1.87027480
C       -5.74998962      -2.04046554      -2.07108297
C       -6.56267044      -2.85067031      -2.90120389
C       -7.69804325      -2.11769413      -3.15687211
Br      -9.12902348      -2.68634761      -4.20841481
O       -7.63342040      -0.91015253      -2.53544007
H       -3.66833715       4.41202290       4.90545207
H       -1.99034849       4.41050420       4.35092066
H       -2.69275660       2.96349336       5.17655636
H       -0.82445051       2.41837862       3.88832113
H        0.56551675       1.00089970       2.47717347
H       -2.47640205       0.94260693      -0.54888115
H       -4.61453849       3.48336003       1.08683413
H       -4.77520237      -2.27858359      -1.66524270
H       -6.34313752      -3.84431931      -3.26749341
C        2.79827133      -4.28285024       4.06125925
O        3.35869282      -3.25615436       3.25303322
C        2.49955675      -2.49926419       2.49439910
C        1.10628585      -2.64978045       2.50452000
C        0.29875122      -1.83928814       1.70331086
C        0.88229464      -0.88229464       0.88229464
C        2.26608897      -0.72288302       0.85609704
C        3.09237230      -1.51128263       1.67435158
C        4.56383334      -1.36109795       1.63439267
C        5.24898082      -0.22088695       1.47606643
N        4.75424693       1.04535558       1.30726362
C        5.83184679       1.75072897       1.19408519
O        7.02854831       1.11510303       1.27381040
C        6.73930822      -0.20026878       1.46412410
O        7.52414595      -1.11947970       1.58344761
C        5.89467168       3.16155698       0.97714130
C        4.89214256       4.10565280       0.85195135
C        5.52968799       5.35114520       0.63225344
C        6.88095947       5.09476300       0.63728053
Br       8.21697685       6.37153066       0.38881487
O        7.11224890       3.77151101       0.84708991
H        3.62092135      -4.79299526       4.57189550
H        2.27505905      -5.02617333       3.45054097
H        2.13944364      -3.86425501       4.82910767
H        0.61411260      -3.38945930       3.12757836
H       -0.78058165      -1.96710055       1.72603753
H        2.69910364       0.02069618       0.19172038
H        5.12057665      -2.28701307       1.77714293
H        3.82947726       3.90823434       0.91013316
H        5.05872720       6.31375028       0.48634788
