129
Properties=species:S:1:pos:R:3 pbc="F F F"
C        0.00000000       0.00000000       0.00000000
C        3.02330989       4.59193393      -3.52713700
O        3.34802143       3.22786848      -3.29199048
C        2.50081026       2.49735506      -2.49505472
C        1.31774858       3.00318081      -1.93965690
C        0.50742790       2.19540177      -1.13852055
C        0.88229464       0.88229464      -0.88229464
C        2.05784363       0.36502330      -1.42220210
C        2.87198592       1.15464747      -2.25137311
C        4.13248495       0.61720850      -2.80963050
C        4.35336736      -0.63592439      -3.22849122
N        3.48197375      -1.69294731      -3.22712854
C        4.20309303      -2.64676039      -3.71887037
O        5.48386450      -2.36878561      -4.07217680
C        5.67199380      -1.05276333      -3.78447063
O        6.68338416      -0.39919476      -3.94288387
C        3.78503435      -3.99769983      -3.92292148
C        2.57254166      -4.61801537      -3.68391482
C        2.72774547      -5.97514712      -4.05819789
C        4.02271523      -6.10288794      -4.50364971
O        4.67082475      -4.91015429      -4.42715733
H        3.81079200       5.01963895      -4.15538116
H        3.00010405       5.16030579      -2.59136351
H        2.07772657       4.68356956      -4.07151019
H        0.99452444       4.02464651      -2.11197930
H       -0.40877572       2.60281167      -0.71852047
H        2.33799787      -0.65982116      -1.19195112
H        4.93768513       1.34585730      -2.90119023
H        1.68797042      -4.13986106      -3.28326672
H        1.98572980      -6.76024074      -4.00583575
C        4.61828853      -7.32339463      -4.98245642
C        5.11708117      -8.34556899      -5.38345704
Br       5.92358667      -9.99833846      -6.03184113
C       -2.95823244      -4.55341669      -3.63073170
O       -3.35183057      -3.23191991      -3.28412992
C       -2.50064041      -2.49773323      -2.49484640
C       -1.25325628      -2.95670859      -2.05062142
C       -0.44339429      -2.14833879      -1.24961715
C       -0.88229464      -0.88229464      -0.88229464
C       -2.12187659      -0.41239422      -1.31079822
C       -2.93858011      -1.20117429      -2.13825211
C       -4.26525939      -0.71576073      -2.57830383
C       -4.59255773       0.54357132      -2.89694778
N       -3.79153771       1.65473442      -2.87935169
C       -4.60294872       2.58690455      -3.25915884
O       -5.88451186       2.24608287      -3.54882670
C       -5.96934769       0.90483792      -3.33919133
O       -6.94582762       0.19588278      -3.47712843
C       -4.28573150       3.97313606      -3.39766056
C       -3.10147613       4.65744893      -3.19441391
C       -3.36693793       6.02194834      -3.46580664
C       -4.69446750       6.08996877      -3.81897828
O       -5.25934058       4.85381196      -3.78229918
H       -3.75769586      -4.99271398      -4.23540227
H       -2.83615384      -5.17687913      -2.73874038
H       -2.04760427      -4.54654258      -4.23865947
H       -0.87853566      -3.94113717      -2.31147743
H        0.52293078      -2.51876017      -0.91672702
H       -2.45001953       0.57464461      -0.99475291
H       -5.02718309      -1.48979600      -2.66775356
H       -2.16348604       4.21567494      -2.88356499
H       -2.67413506       6.85040251      -3.40759225
C       -5.39683621       7.29533937      -4.17585347
C       -5.98507002       8.30483725      -4.47473645
Br      -6.93619432       9.93710993      -4.95800495
C       -2.84511506       4.42246318       3.87480258
O       -3.35754166       3.24415682       3.26618191
C       -2.50010278       2.49860941       2.49450785
C       -1.14535969       2.80581159       2.30941502
C       -0.33673159       1.99617098       1.50844765
C       -0.88229464       0.88229464       0.88229464
C       -2.22838201       0.56534517       1.05134185
C       -3.05073253       1.35327456       1.87399941
C       -4.48593625       1.03374171       2.03964599
C       -5.03323979      -0.18747534       2.10016974
N       -4.40305057      -1.40075087       2.01385528
C       -5.38750825      -2.23213251       2.11982727
O       -6.63885999      -1.73100889       2.27940459
C       -6.50042069      -0.37789635       2.28117676
O       -7.37770937       0.45430042       2.39506347
C       -5.29366819      -3.65709280       2.07368061
C       -4.19936525      -4.48993478       1.92901064
C       -4.69325372      -5.81734665       1.93488916
C       -6.05689568      -5.71693298       2.08351430
O       -6.43015159      -4.41244459       2.17012080
H       -3.66312516       4.89732179       4.42536517
H       -2.49364567       5.13602458       3.12210310
H       -2.05560625       4.18265203       4.59454804
H       -0.68444894       3.66992972       2.77677159
H        0.71300598       2.24710191       1.37846048
H       -2.63517734      -0.30120421       0.53615470
H       -5.13668336       1.90133897       2.14671032
H       -3.17093485      -4.16777360       1.82821484
H       -4.12269922      -6.73120218       1.83982776
C       -6.96923909      -6.82971324       2.13782447
C       -7.73332669      -7.76166671       2.18330924
Br      -8.96879172      -9.26855665       2.25685426
C        2.79662136      -4.27291426       4.07284521
O        3.35866202      -3.25698426       3.25223411
C        2.49951851      -2.49930442       2.49439711
C        1.10523917      -2.63878660       2.51656052
C        0.29777729      -1.82824517       1.71532777
C        0.88229464      -0.88229464       0.88229464
C        2.26704103      -0.73396850       0.84405950
C        3.09355658      -1.52243302       1.66201690
C        4.56578427      -1.38412926       1.60941042
C        5.25853394      -0.25060498       1.43679527
N        4.77237463       1.01813095       1.26191129
C        5.85451776       1.71411296       1.13479821
O        7.04681758       1.06974575       1.21018385
C        6.74883697      -0.24178963       1.41307450
O        7.52739878      -1.16618005       1.53349444
C        5.92663191       3.12266990       0.90629399
C        4.93053994       4.07360821       0.78150938
C        5.57602899       5.31230302       0.54707026
C        6.92525870       5.04535972       0.54357801
O        7.14786747       3.72200716       0.76196750
H        3.61925611      -4.78551058       4.58104543
H        2.26284890      -5.01684189       3.47208257
H        2.14712945      -3.84318329       4.84249359
H        0.61222516      -3.36969671       3.14922839
H       -0.78230724      -1.94739302       1.74747063
H        2.70060587       0.00098441       0.17050637
H        5.11639742      -2.31324887       1.75508636
H        3.86685793       3.88500399       0.84952215
H        5.11145434       6.27741182       0.39728228
C        7.96314649       6.02171303       0.33591685
C        8.83237751       6.83940892       0.16200063
Br      10.23785055       8.16155403      -0.11920719
