150
Properties=species:S:1:pos:R:3 pbc="F F F"
C        3.93321392       5.50183795      -4.43704103
O        4.25792546       4.13777250      -4.20189451
C        3.41071428       3.40725908      -3.40495875
C        2.22765260       3.91308484      -2.84956093
C        1.41733193       3.10530580      -2.04842457
C        1.79219867       1.79219867      -1.79219867
C        2.96774765       1.27492732      -2.33210612
C        3.78188995       2.06455149      -3.16127714
C        5.04238898       1.52711253      -3.71953452
C        5.26327138       0.27397964      -4.13839524
N        4.39187777      -0.78304328      -4.13703256
C        5.11299705      -1.73685636      -4.62877439
O        6.39376853      -1.45888159      -4.98208082
C        6.58189782      -0.14285930      -4.69437465
O        7.59328818       0.51070927      -4.85278789
C        4.69493838      -3.08779581      -4.83282550
C        3.48244568      -3.70811134      -4.59381884
C        3.63764949      -5.06524310      -4.96810191
C        4.93261925      -5.19298392      -5.41355374
O        5.58072878      -4.00025026      -5.33706136
H        4.72069603       5.92954298      -5.06528519
H        3.91000808       6.07020981      -3.50126754
H        2.98763059       5.59347359      -4.98141422
H        1.90442847       4.93455054      -3.02188333
H        0.50112830       3.51271569      -1.62842450
H        3.24790190       0.25008287      -2.10185514
H        5.84758915       2.25576132      -3.81109425
H        2.59787444      -3.22995703      -4.19317075
H        2.89563383      -5.85033672      -4.91573977
C        5.52819255      -6.41349061      -5.89236045
C        6.02698519      -7.43566496      -6.29336107
Br       6.83349070      -9.08843444      -6.94174515
C       -3.81108682      -5.41222366      -4.64878242
O       -4.26482745      -4.14678225      -4.18598277
C       -3.41032990      -3.40802804      -3.40457417
C       -2.10776194      -3.80688571      -3.07565072
C       -1.29842027      -2.99793196      -2.27471006
C       -1.79219867      -1.79219867      -1.79219867
C       -3.08661580      -1.38294617      -2.10521913
C       -3.90588822      -2.17115321      -2.93067715
C       -5.28882112      -1.75177834      -3.24843656
C       -5.71889478      -0.50025074      -3.45650074
N       -4.99270250       0.66054190      -3.41370645
C       -5.88762725       1.55663358      -3.67392142
O       -7.16133091       1.14689078      -3.90252764
C       -7.14377356      -0.20780717      -3.78183245
O       -8.07922148      -0.97261936      -3.90494450
C       -5.67183542       2.96767955      -3.73581220
C       -4.52340128       3.71819262      -3.56294452
C       -4.89547855       5.07564017      -3.72066993
C       -6.24600489       5.07380663      -3.98099081
O       -6.72519974       3.80151841      -3.99385854
H       -4.62043639      -5.86585651      -5.22923128
H       -3.58675363      -6.08244837      -3.81228342
H       -2.94744668      -5.30228206      -5.31278966
H       -1.68879657      -4.74370011      -3.42836565
H       -0.28916083      -3.32098095      -2.03212672
H       -3.45553833      -0.44388197      -1.70041960
H       -6.00307105      -2.56957414      -3.34179954
H       -3.53923514       3.32357727      -3.34543028
H       -4.25575746       5.94482262      -3.65010204
C       -7.04858685       6.24796027      -4.20643581
C       -7.72074923       7.23131394      -4.39524600
Br      -8.80757897       8.82131365      -4.70053610
C       -5.32078710       4.80221480       3.74909100
O       -4.15508501       4.17482953       4.26767792
C       -3.40857549       3.40439587       3.40996076
C       -3.70263955       3.23773976       2.04991905
C       -2.89291436       2.43676013       1.24138781
C       -1.79219867       1.79219867       1.79219867
C       -1.48846915       1.94279786       3.14351410
C       -2.27639940       2.76507053       3.96624864
C       -1.97112079       2.91125529       5.40665995
C       -0.75550463       2.95206633       5.96807530
N        0.46371234       2.85916544       5.35041395
C        1.28515621       2.94494411       6.34512719
O        0.77186826       3.09626850       7.59256752
C       -0.57950957       3.11469960       7.43920400
O       -1.42015274       3.22817654       8.30845606
C        2.71047926       2.88390900       6.26653834
C        3.55385351       2.74204487       5.17996181
C        4.87564435       2.72762073       5.68853192
C        4.76164025       2.86227260       7.05255673
O        3.45409757       2.95932616       7.41231128
H       -5.79864526       5.34897385       4.56790508
H       -6.03865316       4.06147247       3.38135979
H       -5.06422041       5.52791954       2.97037844
H       -4.55633016       3.71979602       1.58473615
H       -3.13351496       2.32120133       0.18755220
H       -0.63227141       1.41348810       3.55408040
H       -2.84470264       3.02081133       6.04893074
H        3.24211601       2.65623464       4.14696953
H        5.79471488       2.62866228       5.12708948
C        5.86468300       2.89404701       7.97769838
C        6.78848131       2.92065808       8.75250452
Br       8.28218503       2.96368593      10.00530051
C        5.54348173      -4.24990341       4.07870775
O        4.13232403      -4.21649130       4.24877714
C        3.40656565      -3.40544088       3.41092559
C        3.96826405      -2.64727540       2.37475891
C        3.16163629      -1.84570987       1.56371613
C        1.79219867      -1.79219867       1.79219867
C        1.21808062      -2.53544405       2.82125644
C        2.01002032      -3.36719534       3.63050292
C        1.40869097      -4.14182550       4.73851956
C        0.20338661      -4.72643082       4.74582883
N       -0.73815765      -4.73322071       3.75080399
C       -1.69646822      -5.42013784       4.28124547
O       -1.52352272      -5.90219049       5.53829998
C       -0.28610663      -5.49254124       5.92697856
O        0.26237206      -5.70475185       6.98966143
C       -2.95279164      -5.72160806       3.67115165
C       -3.45593673      -5.40016442       2.42392549
C       -4.76193020      -5.94426083       2.35817767
C       -4.97828423      -6.56535147       3.56612183
O       -3.88759714      -6.43742485       4.36771216
H        5.95597794      -4.92172664       4.83781961
H        5.98475535      -3.26015034       4.23657973
H        5.81248123      -4.65312360       3.09691356
H        5.03367170      -2.65821766       2.16897297
H        3.61339046      -1.26673230       0.76214574
H        0.14677233      -2.46225357       2.99081401
H        2.04606280      -4.25288944       5.61549248
H       -2.93561739      -4.83624667       1.66045888
H       -5.45705294      -5.88644902       1.53164080
C       -6.18657874      -7.25379506       3.93984607
C       -7.19852539      -7.83036656       4.25284012
Br      -8.83475754      -8.76263392       4.75892503
C       -0.00445707       0.01189536      -1.78238275
H       -0.66409135       0.67374010      -2.43557963
H        0.65740317      -0.63156657      -2.45157240
C       -0.90989263      -0.90692880      -0.91072765
C        0.90977584       0.90977584      -0.90977584
C       -0.00465871       1.77757030       0.00794375
H       -0.66225468       2.44313916      -0.64384735
H        0.64322798       2.43503045       0.67728295
C       -1.78241447       0.00034974      -0.00472694
H       -2.45427497      -0.65498947       0.64260836
H       -2.43311707       0.67328779      -0.65473579
C       -0.91132561       0.90220522       0.91563759
C       -0.01476271      -0.02253852       1.78660255
H       -0.67934791      -0.69751639       2.42135241
H        0.63392994       0.61504881       2.47327442
C        0.01484550      -1.77751727      -0.01636693
H        0.67870853      -2.42144646      -0.68295456
H       -0.62264859      -2.45592969       0.64226336
C        1.78714474       0.01002794       0.00389507
H        2.44202412       0.67113390       0.66197326
H        2.45385902      -0.65136977      -0.64189061
C        0.91606151      -0.90478549       0.90901405
