134
Properties=species:S:1:pos:R:3 pbc="F F F"
C        1.79139396       1.79139396      -1.79139396
C        3.17192285       1.80257670      -1.59841534
C        3.97838158       2.60866668      -2.40666370
C        3.40295769       3.40216753      -3.40788598
C        2.01424388       3.38536438      -3.59402948
C        1.20906012       2.57860100      -2.78429347
C        4.27853287       4.23587866      -4.24631723
N        5.56617408       4.33930900      -4.16206214
C        5.87773078       5.23015063      -5.16499410
C        7.14476385       5.58750774      -5.41750207
C        7.58830659       6.49637646      -6.41832203
S        9.05825931       6.13978171      -7.26046033
C        8.96622515       7.56465767      -8.19826337
C        7.86372500       8.30444355      -7.86475941
C        7.08104125       7.71469152      -6.84113577
C        4.62511017       5.64245103      -5.87014695
O        4.44793994       6.38520660      -6.81244400
O        3.65499490       4.95827403      -5.20017828
H        3.62929603       1.18972944      -0.82556014
H        5.05570911       2.61047286      -2.25011688
H        1.54207507       3.99149976      -4.36379180
H        0.13211020       2.57102738      -2.93653174
H        7.91666243       5.11526071      -4.81184568
H        9.72568765       7.78658865      -8.93497817
H        6.18210348       8.16264751      -6.43526077
C        7.50978690       9.56418538      -8.46590693
C        7.21336375      10.61921917      -8.96936797
Br       6.73407258      12.32511957      -9.78342190
C       -1.79139396      -1.79139396      -1.79139396
C       -3.16954166      -1.81966950      -1.58370372
C       -3.97602382      -2.62574028      -2.39194786
C       -3.40301980      -3.40211459      -3.40787680
C       -2.01667427      -3.36820381      -3.60875966
C       -1.21145799      -2.56148960      -2.79900700
C       -4.27864143      -4.23623032      -4.24585701
N       -5.56410235      -4.35456227      -4.14888061
C       -5.87694619      -5.23789620      -5.15803312
C       -7.14273221      -5.60627709      -5.40076436
C       -7.58732968      -6.50909448      -6.40658093
S       -9.07010845      -6.15946947      -7.22892343
C       -8.97295347      -7.57308579      -8.18310694
C       -7.85899368      -8.30438082      -7.86955346
C       -7.07161285      -7.71719895      -6.84805674
C       -4.62770616      -5.62893411      -5.88106789
O       -4.45281426      -6.35953540      -6.83324088
O       -3.65777893      -4.94149375      -5.21417453
H       -3.62504897      -1.22018601      -0.79935063
H       -5.05150286      -2.64095007      -2.22384591
H       -1.54641164      -3.96084854      -4.39010644
H       -0.13637171      -2.54056350      -2.96273411
H       -7.91303390      -5.14899957      -4.78173536
H       -9.73795289      -7.79532448      -8.91397710
H       -6.16354473      -8.15969142      -6.45677561
C       -7.49808028      -9.55365607      -8.48814286
C       -7.19581530     -10.59992410      -9.00621149
Br      -6.70707840     -12.29165101      -9.84388465
C       -1.79139396       1.79139396       1.79139396
C       -1.20939378       2.58430216       2.77921895
C       -2.01680654       3.39207125       3.58483417
C       -3.40573438       3.40649109       3.40078572
C       -3.98215534       2.60543879       2.40604361
C       -3.17287437       1.79776104       1.60131919
C       -4.22865278       4.27137475       4.26070122
N       -3.81164576       5.04345868       5.21244078
C       -4.97065499       5.62066840       5.68155212
C       -4.95456758       6.51775871       6.67744738
C       -6.08012950       7.17596274       7.24691284
S       -5.91761748       8.83817830       7.70270557
C       -7.52187274       8.92384141       8.28343204
C       -8.15684404       7.71750952       8.15857440
C       -7.34079257       6.71064833       7.58542764
C       -6.13406582       5.11211513       4.89152720
O       -7.31710754       5.37110254       4.95738046
O       -5.55471552       4.24584362       4.01288807
H       -0.13264328       2.58212207       2.92982026
H       -1.55405104       4.00919326       4.35305455
H       -5.05731248       2.59789376       2.24216038
H       -3.62879130       1.17995557       0.83092245
H       -3.97825975       6.79032302       7.07518606
H       -7.90943511       9.84738220       8.69043716
H       -7.66580210       5.68991695       7.42429271
C       -9.51333543       7.45941377       8.56713001
C      -10.64939697       7.24325858       8.90929534
Br     -12.48631240       6.89375392       9.46254773
C        1.79139396      -1.79139396       1.79139396
C        1.20990798      -2.58023636       2.78277055
C        2.01731516      -3.38801010       3.58838671
C        3.40571960      -3.40650388       3.40078772
C        3.98162953      -2.60952084       2.40248737
C        3.17235622      -1.80183131       1.59776707
C        4.22862541      -4.27129165       4.26081169
N        3.81209181      -5.03983064       5.21562278
C        4.97081708      -5.61882702       5.68323142
C        4.95499176      -6.51329615       6.68148575
C        6.08032066      -7.17294032       7.24974412
S        5.91469525      -8.83354590       7.71026020
C        7.52022296      -8.92186408       8.28705916
C        8.15798381      -7.71750799       8.15743616
C        7.34305473      -6.71002038       7.58379343
C        6.13348748      -5.11533282       4.88888785
O        7.31602264      -5.37721335       4.95235455
O        5.55410321      -4.24983662       4.00950737
H        0.13356050      -2.57487747       2.93614764
H        1.55495835      -4.00194390       4.35939659
H        5.05637438      -2.60518488       2.23580737
H        3.62787063      -1.18720195       0.82459674
H        3.97901660      -6.78230141       7.08245081
H        7.90645068      -9.84535103       8.69545276
H        7.67028229      -5.69055426       7.41917520
C        9.51619155      -7.46187261       8.56181505
C       10.65369054      -7.24777799       8.90048237
Br      12.49293019      -6.90160508       9.44807878
C       -0.00445707       0.01189536      -1.78238275
H       -0.66409135       0.67374010      -2.43557963
H        0.65740317      -0.63156657      -2.45157240
C       -0.90989263      -0.90692880      -0.91072765
C        0.90977584       0.90977584      -0.90977584
C       -0.00465871       1.77757030       0.00794375
H       -0.66225468       2.44313916      -0.64384735
H        0.64322798       2.43503045       0.67728295
C       -1.78241447       0.00034974      -0.00472694
H       -2.45427497      -0.65498947       0.64260836
H       -2.43311707       0.67328779      -0.65473579
C       -0.91132561       0.90220522       0.91563759
C       -0.01476271      -0.02253852       1.78660255
H       -0.67934791      -0.69751639       2.42135241
H        0.63392994       0.61504881       2.47327442
C        0.01484550      -1.77751727      -0.01636693
H        0.67870853      -2.42144646      -0.68295456
H       -0.62264859      -2.45592969       0.64226336
C        1.78714474       0.01002794       0.00389507
H        2.44202412       0.67113390       0.66197326
H        2.45385902      -0.65136977      -0.64189061
C        0.91606151      -0.90478549       0.90901405
