113
Properties=species:S:1:pos:R:3 pbc="F F F"
C        0.00000000       0.00000000       0.00000000
C        0.87909164       0.87909164      -0.87909164
C        2.19398859       0.62867068      -1.16501450
S        2.84362312       1.83423506      -2.18520288
C        1.34667418       2.70804496      -2.25266805
C        0.38723608       2.05949747      -1.48914492
C        1.30037880       3.89902889      -3.03938769
C        0.22405600       4.68572531      -3.17156280
N       -1.02071639       4.55776606      -2.61240955
C       -1.65186956       5.59002138      -3.07610849
O       -0.98484567       6.39917702      -3.92828257
C        0.27376689       5.89411658      -4.03751523
O        1.19339437       6.33348224      -4.69730373
C       -3.06322793       5.92064503      -2.82349744
C       -3.92672711       4.82832884      -2.62592308
C       -5.28622991       5.02839669      -2.38316864
C       -5.79731462       6.32119952      -2.33184456
C       -4.94769416       7.41374844      -2.51190824
C       -3.57943132       7.22191006      -2.75107321
H        2.80798268      -0.19612553      -0.83138629
H       -0.62858373       2.41715978      -1.37688154
H        2.20637095       4.18238133      -3.57484828
H       -3.54365776       3.80929298      -2.66223487
H       -5.94370138       4.17519994      -2.23207407
H       -6.85610070       6.48151724      -2.14021571
H       -5.36345613       8.41781925      -2.45026441
C       -2.77815245       8.41472667      -2.84456487
C       -2.10708139       9.41371059      -2.92286414
Br      -1.02201626      11.02898309      -3.04946742
C       -0.87909164      -0.87909164      -0.87909164
C       -1.59396288      -1.95857323      -0.43513766
S       -2.46143570      -2.69066149      -1.71096387
C       -1.87879942      -1.54891049      -2.87967728
C       -1.03069840      -0.63813949      -2.26704058
C       -2.32502886      -1.68424576      -4.22952076
C       -1.94785506      -0.89176751      -5.24172155
N       -1.08619724       0.17407056      -5.23733254
C       -1.09396586       0.55537202      -6.47566646
O       -1.90050261      -0.11229057      -7.32982074
C       -2.49231132      -1.10339880      -6.60968858
O       -3.27963334      -1.93816671      -7.00638028
C       -0.36299987       1.70783002      -7.02574469
C       -0.16859735       2.79031229      -6.14923974
C        0.50820697       3.93596360      -6.56950599
C        1.00090897       4.01159958      -7.86823800
C        0.82694279       2.93795525      -8.74286057
C        0.15270739       1.78091040      -8.32716974
H       -1.65474322      -2.35659300       0.56809278
H       -0.54200582       0.17127138      -2.79472315
H       -3.02828615      -2.48783156      -4.44748285
H       -0.54720535       2.74810017      -5.12876492
H        0.65197655       4.76645010      -5.88199927
H        1.53140844       4.90190924      -8.19894992
H        1.23542772       3.00922329      -9.74927853
C        0.09612510       0.70252682      -9.27979102
C        0.04873744      -0.20061943     -10.07761134
Br      -0.02788441      -1.66093052     -11.36761932
C       -0.87909164       0.87909164       0.87909164
C       -0.44374056       1.98343122       1.56050199
S       -1.71816455       2.71146778       2.43342873
C       -2.87578243       1.53765639       1.89394837
C       -2.25870242       0.61404647       1.06312958
C       -4.22519377       1.67174298       2.34185863
C       -5.22192248       0.83455833       2.02486331
N       -5.19569342      -0.29438630       1.24815210
C       -6.42533751      -0.70079695       1.28971975
O       -7.30838863       0.05036271       1.98386258
C       -6.60118025       1.07881408       2.52540438
O       -7.01858798       1.97344074       3.23215162
C       -6.97025602      -1.86816389       0.57882240
C       -6.35915643      -2.18376041      -0.64787123
C       -6.80047548      -3.26857990      -1.40656016
C       -7.85436466      -4.05168644      -0.94694877
C       -8.45932753      -3.75722075       0.27585575
C       -8.01870367      -2.67221960       1.04706789
H        0.55217197       2.40259602       1.59281938
H       -2.77905874      -0.21653352       0.60293237
H       -4.45912146       2.52146119       2.98301791
H       -5.53242015      -1.58174299      -1.02280706
H       -6.31952760      -3.50221697      -2.35373800
H       -8.19965795      -4.89986339      -1.53416232
H       -9.27052048      -4.39258923       0.62669628
C       -8.65686808      -2.50245555       2.32672657
C       -9.19133078      -2.36027816       3.39844072
Br     -10.05551176      -2.13038935       5.13131185
C        0.87909164      -0.87909164       0.87909164
C        0.71519639      -2.22785155       1.04462583
S        1.89463310      -2.86726068       2.10116728
C        2.64277947      -1.32113168       2.34347604
C        1.96943362      -0.35198842       1.61445643
C        3.78309874      -1.25500803       3.20068861
C        4.45224477      -0.13268034       3.49641900
N        4.21883713       1.15336066       3.08398274
C        5.16040344       1.82000615       3.67386301
O        6.04432586       1.12372130       4.42200936
C        5.64574990      -0.17656535       4.38308345
O        6.16198788      -1.12627782       4.93591463
C        5.40702486       3.26423989       3.53812956
C        5.06274311       3.83498603       2.29976772
C        5.25907633       5.19595043       2.06220952
C        5.79812557       6.00202644       3.05963033
C        6.13023185       5.45001513       4.29774580
C        5.93134676       4.08451011       4.54671530
H       -0.03170960      -2.87232900       0.60262404
H        2.25179326       0.69330208       1.60696640
H        4.13579002      -2.18813684       3.63967370
H        4.63912507       3.21889214       1.50763716
H        4.98876272       5.62530297       1.10011287
H        5.95030276       7.06399842       2.87932790
H        6.53403783       6.10069858       5.07128828
C        6.23306484       3.63197428       5.88004854
C        6.48575373       3.25297553       6.99671513
Br       6.89433030       2.64016659       8.80227055
