126
Properties=species:S:1:pos:R:3 pbc="F F F"
C        1.78899566       1.78899566      -1.78899566
C        3.10389261       1.53857470      -2.07491853
S        3.75352714       2.74413908      -3.09510690
C        2.25657820       3.61794899      -3.16257207
C        1.29714011       2.96940149      -2.39904895
C        2.21028283       4.80893291      -3.94929171
C        1.13396002       5.59562934      -4.08146683
N       -0.11081237       5.46767009      -3.52231357
C       -0.74196554       6.49992541      -3.98601251
O       -0.07494165       7.30908104      -4.83818659
C        1.18367092       6.80402060      -4.94741926
O        2.10329839       7.24338626      -5.60720775
C       -2.15332391       6.83054905      -3.73340147
C       -3.01682309       5.73823286      -3.53582710
C       -4.37632589       5.93830072      -3.29307267
C       -4.88741059       7.23110354      -3.24174858
C       -4.03779013       8.32365246      -3.42181227
C       -2.66952729       8.13181408      -3.66097723
Br      -1.61239551       9.70550384      -3.78432131
H        3.71788670       0.71377849      -1.74129032
H        0.28132029       3.32706381      -2.28678556
H        3.11627498       5.09228535      -4.48475230
H       -2.63375374       4.71919701      -3.57213889
H       -5.03379736       5.08510396      -3.14197810
H       -5.94619668       7.39142126      -3.05011973
H       -4.45355211       9.32772328      -3.36016843
C       -1.78899566      -1.78899566      -1.78899566
C       -3.08333430      -2.13050037      -1.50355117
S       -3.74273415      -3.12428703      -2.72575194
C       -2.27980450      -3.09977702      -3.65751774
C       -1.32037359      -2.33623446      -3.00898250
C       -2.25925018      -3.81690266      -4.89235462
C       -1.19959596      -3.90401228      -5.70744795
N        0.05391202      -3.36847672      -5.56460660
C        0.66254466      -3.77128872      -6.63522832
O       -0.05057987      -4.49882425      -7.52292188
C       -1.29084429      -4.65766330      -6.98660319
O       -2.23110659      -5.26166308      -7.46112273
C        2.04444539      -3.43903543      -7.01603656
C        2.51724732      -2.18516459      -6.58931961
C        3.81211365      -1.76765778      -6.89950337
C        4.64965933      -2.59895976      -7.63614110
C        4.19677614      -3.85164984      -8.05280089
C        2.89894442      -4.28123372      -7.74097472
Br       2.44913741      -6.04655256      -8.28001449
H       -3.67755307      -1.85033709      -0.64506535
H       -0.32292397      -2.17430509      -3.39794061
H       -3.17576058      -4.32392590      -5.19362615
H        1.87531797      -1.52161760      -6.01128254
H        4.16589073      -0.79548929      -6.56368614
H        5.66071487      -2.27828571      -7.87777348
H        4.87323559      -4.49483266      -8.61274254
C       -1.78899566       1.78899566       1.78899566
C       -1.45667192       3.04701017       2.21370376
S       -2.69530138       3.71960878       3.17786297
C       -3.69781016       2.31204273       3.02724637
C       -3.05895077       1.35933313       2.24730665
C       -4.96885186       2.32134842       3.67830718
C       -5.84043883       1.30398309       3.66663427
N       -5.73314079       0.07356015       3.07247034
C       -6.85351910      -0.49639056       3.38684384
O       -7.74150735       0.22538350       4.10543513
C       -7.15193763       1.42530338       4.35786977
O       -7.60966076       2.35768033       4.98655131
C       -7.28590818      -1.83707164       2.96179007
C       -6.81707513      -2.26755447       1.70771622
C       -7.17001125      -3.52088846       1.20592471
C       -7.99203572      -4.35893426       1.95234007
C       -8.45179184      -3.94879583       3.20467859
C       -8.09771580      -2.69320895       3.71875717
Br      -8.70723063      -2.30570798       5.47590699
H       -0.55517489       3.60773464       2.01004599
H       -3.48901322       0.39379606       2.01236037
H       -5.24980159       3.22567185       4.21783919
H       -6.17221174      -1.62461794       1.10998837
H       -6.80090062      -3.84215644       0.23454052
H       -8.26733764      -5.33786247       1.56586913
H       -9.07927616      -4.62610155       3.78116500
C        1.78899566      -1.78899566       1.78899566
C        1.68817731      -3.15109327       1.87811526
S        2.84535921      -3.78546279       2.96195113
C        3.49814445      -2.21877905       3.32017577
C        2.81202722      -1.24748744       2.60607589
C        4.58917279      -2.14094699       4.23838767
C        5.18277951      -1.00370306       4.62457362
N        4.90296965       0.28897925       4.26518089
C        5.77754663       0.96988103       4.93630678
O        6.65838489       0.28024077       5.69418187
C        6.33116660      -1.03448222       5.56946195
O        6.86836746      -1.98497737       6.10054757
C        5.95436534       2.42976592       4.88602719
C        5.64283041       3.04692322       3.66132969
C        5.77895679       4.42660000       3.50269070
C        6.22439169       5.20503513       4.56608497
C        6.52281050       4.60596820       5.79083230
C        6.38380777       3.22103535       5.96049160
Br       6.72435363       2.55296899       7.70604500
H        0.99919709      -3.80793824       1.36582018
H        3.03906008      -0.19045313       2.66565645
H        4.96807149      -3.07708465       4.64815649
H        5.29228134       2.45294167       2.81824250
H        5.53483157       4.89190520       2.55035832
H        6.32933865       6.28129107       4.44729673
H        6.85270944       5.23443606       6.61606623
C       -0.00445707       0.01189536      -1.78238275
H       -0.66409135       0.67374010      -2.43557963
H        0.65740317      -0.63156657      -2.45157240
C       -0.90989263      -0.90692880      -0.91072765
C        0.90977584       0.90977584      -0.90977584
C       -0.00465871       1.77757030       0.00794375
H       -0.66225468       2.44313916      -0.64384735
H        0.64322798       2.43503045       0.67728295
C       -1.78241447       0.00034974      -0.00472694
H       -2.45427497      -0.65498947       0.64260836
H       -2.43311707       0.67328779      -0.65473579
C       -0.91132561       0.90220522       0.91563759
C       -0.01476271      -0.02253852       1.78660255
H       -0.67934791      -0.69751639       2.42135241
H        0.63392994       0.61504881       2.47327442
C        0.01484550      -1.77751727      -0.01636693
H        0.67870853      -2.42144646      -0.68295456
H       -0.62264859      -2.45592969       0.64226336
C        1.78714474       0.01002794       0.00389507
H        2.44202412       0.67113390       0.66197326
H        2.45385902      -0.65136977      -0.64189061
C        0.91606151      -0.90478549       0.90901405
