197
Properties=species:S:1:pos:R:3 pbc="F F F"
C        0.00000000       0.00000000       0.00000000
C        0.88149912       0.88149912      -0.88149912
C        2.26110173       0.89403366      -0.68659539
C        3.06397339       1.71129021      -1.48611643
C        2.48911957       2.51310245      -2.48442653
C        1.10093509       2.48887406      -2.67415861
C        0.29845324       1.67295927      -1.87081324
C        3.38881456       3.38953526      -3.27984370
O        4.55234752       3.59292650      -2.96603350
O        2.70841099       3.90336421      -4.37569591
C        3.38361666       4.78841735      -5.23612041
C        2.67381327       5.90178447      -5.67991623
C        3.30984229       6.84458051      -6.49366030
C        4.65258691       6.67563180      -6.87418447
C        5.33450283       5.52861437      -6.44839560
C        4.69618662       4.57561240      -5.64499416
O        6.72754953       5.43150611      -6.62021404
C        7.24702583       4.19893563      -6.97641286
O        6.65241932       3.29380609      -7.54084084
C        8.64731573       4.10195777      -6.47791030
C        9.30709577       5.18443248      -5.87508098
C       10.59618704       5.02525177      -5.35843444
C       11.22859352       3.78654695      -5.44486674
Br      12.96757721       3.57284374      -4.73652825
C       10.58573543       2.70419838      -6.04378101
C        9.29566993       2.86156270      -6.55980299
C        5.29480855       7.79506018      -7.61023599
O        4.91110892       8.94390283      -7.39510380
C        6.38617446       7.59212019      -8.58958459
C        7.43949400       8.51535046      -8.60470303
C        8.48018781       8.37410580      -9.52230287
C        8.46187063       7.32085493     -10.43581149
C        7.40252326       6.41130555     -10.43665739
C        6.35944447       6.54588555      -9.51713925
H        2.72035439       0.28019309       0.08448707
H        4.14099084       1.72309037      -1.32331751
H        0.62517992       3.10654515      -3.43191167
H       -0.77841248       1.66720359      -2.02070706
H        1.64560773       6.06144408      -5.36751627
H        2.76630138       7.73814943      -6.79851947
H        5.24117793       3.70465374      -5.29401121
H        8.83016322       6.15777775      -5.78308223
H       11.09050293       5.86960309      -4.88370017
H       11.07349023       1.73444918      -6.10516079
H        8.79277049       2.00689855      -7.00949554
H        7.44614465       9.34746323      -7.90338572
H        9.29738271       9.09116051      -9.53120264
H        9.26856062       7.21646797     -11.15776427
H        7.38526031       5.60152472     -11.16245718
H        5.53358953       5.83979134      -9.54440138
C       -0.88149912      -0.88149912      -0.88149912
C       -2.05322013      -0.36124858      -1.42726207
C       -2.86449587      -1.17392251      -2.22296165
C       -2.50285231      -2.50591908      -2.47787717
C       -1.31989320      -3.01684080      -1.92723376
C       -0.51080949      -2.20316313      -1.12825313
C       -3.42319397      -3.33364948      -3.30135007
O       -4.55667560      -2.97280720      -3.58182472
O       -2.79929338      -4.51793214      -3.67024558
C       -3.52403429      -5.45588217      -4.42823795
C       -3.38679215      -6.79576967      -4.07295215
C       -4.12427583      -7.76829619      -4.75551108
C       -4.99405869      -7.40860768      -5.79973682
C       -5.08614143      -6.05969556      -6.16567580
C       -4.33837800      -5.08500285      -5.49341233
O       -6.09808252      -5.63506154      -7.04612562
C       -5.77229160      -4.66836797      -7.98171475
O       -4.65709798      -4.41804680      -8.41192147
C       -6.99931114      -3.89868720      -8.32918546
C       -8.26938426      -4.25100209      -7.84622288
C       -9.38122490      -3.45694799      -8.14170035
C       -9.22690185      -2.31210278      -8.92100258
Br     -10.73085472      -1.23592738      -9.31016709
C       -7.97166250      -1.95260472      -9.40944761
C       -6.85830770      -2.74518924      -9.11353869
C       -5.85110160      -8.48086699      -6.36813612
O       -6.19873463      -9.41031298      -5.64106794
C       -6.31535053      -8.47874103      -7.77378768
C       -7.62615687      -8.89684128      -8.03654934
C       -8.10067033      -8.92833592      -9.34759022
C       -7.26212079      -8.55813317     -10.39828309
C       -5.94850432      -8.16103313     -10.14094876
C       -5.46927103      -8.12396601      -8.82923223
H       -2.34754982       0.66794792      -1.23645851
H       -3.78357833      -0.76394612      -2.63987427
H       -1.01847163      -4.04743609      -2.09772901
H        0.40103176      -2.61132986      -0.69920007
H       -2.74280820      -7.08469886      -3.24706101
H       -4.05106917      -8.80925585      -4.44264526
H       -4.43870731      -4.03809798      -5.76303758
H       -8.41417367      -5.13203438      -7.22481514
H      -10.35704401      -3.73579426      -7.75096792
H       -7.84693309      -1.05541106     -10.01075605
H       -5.87815721      -2.44795612      -9.48305125
H       -8.27602054      -9.20218979      -7.21878326
H       -9.11891628      -9.25189228      -9.54893730
H       -7.62921323      -8.59209019     -11.42148945
H       -5.29392699      -7.88939881     -10.96591641
H       -4.43841226      -7.83038521      -8.64898478
C       -0.88149912       0.88149912       0.88149912
C       -0.48825648       2.18761929       1.16585502
C       -1.29040264       2.98775459       1.98322281
C       -2.48877906       2.48471483       2.51315466
C       -2.87620960       1.17107793       2.21668024
C       -2.07052069       0.37044789       1.40125717
C       -3.28291460       3.36950656       3.40577236
O       -2.83984031       4.41597067       3.85549653
O       -4.54120200       2.82391744       3.62235167
C       -5.43359748       3.50045273       4.47410420
C       -6.16746777       2.72192603       5.36612017
C       -7.03046260       3.34350379       6.27411670
C       -7.17062387       4.74222533       6.28955399
C       -6.45250525       5.50181081       5.35719674
C       -5.59811658       4.88135254       4.43732406
O       -6.39475306       6.90198452       5.48253210
C       -6.44665516       7.65406676       4.32165240
O       -6.92505748       7.31000491       3.25200387
C       -5.73563350       8.94315909       4.54839122
C       -5.24139243       9.31741068       5.80780612
C       -4.51834583      10.50439112       5.95713628
C       -4.28984122      11.31973539       4.85043059
Br      -3.30355839      12.91881215       5.05457865
C       -4.77777077      10.96123996       3.59470410
C       -5.50003497       9.77347253       3.44352813
C       -7.98822355       5.32978862       7.38209254
O       -8.03856884       4.74716142       8.46438529
C       -8.74254380       6.59450539       7.23083004
C       -8.76278834       7.48430268       8.31245646
C       -9.47545803       8.67963238       8.22150607
C      -10.18143921       8.97989563       7.05720222
C      -10.18003751       8.08500529       5.98544340
C       -9.46468285       6.88801129       6.06977513
H        0.43866500       2.59017592       0.76454949
H       -0.97340856       4.00523049       2.20875967
H       -3.79329860       0.74954453       2.62079360
H       -2.37600070      -0.65005597       1.18355344
H       -6.04502978       1.64263525       5.38690305
H       -7.56561813       2.73505757       7.00229458
H       -5.02185085       5.47970998       3.73828204
H       -5.39453103       8.69194639       6.68454578
H       -4.13146670      10.77574273       6.93659677
H       -4.59385952      11.59130264       2.72793804
H       -5.86201231       9.49089545       2.45625682
H       -8.22604228       7.24306583       9.22788549
H       -9.48854984       9.36934620       9.06184983
H      -10.74515096       9.90757204       6.99006988
H      -10.74612267       8.31689877       5.08622077
H       -9.48999915       6.19460794       5.23317515
C        0.88149912      -0.88149912       0.88149912
C        0.74049312      -0.83433576       2.26690190
C        1.55724398      -1.63250832       3.07162774
C        2.51235448      -2.48216906       2.49212501
C        2.64206202      -2.52442471       1.09748104
C        1.82619426      -1.72237989       0.29365160
C        3.37792231      -3.28090198       3.39936923
O        3.43391031      -3.07469941       4.60269780
O        4.06856670      -4.24354493       2.67535947
C        4.97117441      -5.08187534       3.35510466
C        6.18853559      -5.33843034       2.72854803
C        7.14708418      -6.12083882       3.38016010
C        6.89130040      -6.65667396       4.65442883
C        5.64523632      -6.41820513       5.24807134
C        4.67790885      -5.64677001       4.59211433
O        5.43348558      -6.74594363       6.59984047
C        4.20165519      -7.27229715       6.94842199
O        3.42317693      -7.85458987       6.20929945
C        3.91794728      -6.93740964       8.37182689
C        4.86157919      -6.30700164       9.19802839
C        4.52507185      -5.94829616      10.50650523
C        3.24758161      -6.22029156      10.99213403
Br       2.79344192      -5.72503411      12.75847317
C        2.30203048      -6.84861510      10.18306925
C        2.63676738      -7.20677338       8.87349487
C        8.01578385      -7.34586954       5.33845133
O        9.16672112      -6.98163400       5.10176043
C        7.81430673      -8.45082910       6.30274341
C        8.62831380      -8.48919883       7.44203486
C        8.48618961      -9.52171974       8.36868712
C        7.54288795     -10.52509867       8.15055044
C        6.74470002     -10.50057065       7.00521554
C        6.88025353      -9.46653811       6.07567763
H        0.00672463      -0.17916570       2.73017008
H        1.44802496      -1.58496260       4.15441116
H        3.37978856      -3.16427744       0.61957073
H        1.94000622      -1.75658901      -0.78709706
H        6.41213769      -4.90440636       1.75802402
H        8.11613795      -6.27873625       2.90809608
H        3.72617969      -5.44120648       5.07245670
H        5.86091351      -6.07157070       8.83853898
H        5.26259652      -5.44993204      11.13127763
H        1.30195348      -7.05455070      10.55659603
H        1.88719497      -7.68043235       8.24153726
H        9.37648592      -7.71583625       7.60467142
H        9.11819641      -9.54861215       9.25293730
H        7.43890376     -11.33553138       8.86835774
H        6.02225657     -11.29488486       6.83210078
H        6.26377778      -9.47345723       5.18054724
