198
Properties=species:S:1:pos:R:3 pbc="F F F"
C        1.79130207       1.79130207      -1.79130207
C        2.74896436       2.61416553      -1.20087920
C        3.57614318       3.39813293      -2.00574215
C        3.44696780       3.34961753      -3.39634477
C        2.47781262       2.53667875      -3.98408757
C        1.64542900       1.75568517      -3.17801277
N        4.42104549       4.01741852      -4.19170085
S        5.59322606       3.07308647      -4.97274852
O        4.97240801       2.36218241      -6.06870577
O        6.73371253       3.93965860      -5.18623831
C        6.05445574       1.87133798      -3.74114417
C        7.02364388       2.17819475      -2.78961469
C        7.32628074       1.24240451      -1.79663111
C        6.67478972      -0.00730293      -1.73898463
C        7.04646348      -0.94629542      -0.62578334
C        5.70761425      -0.30145997      -2.71863559
C        5.41404106       0.63049945      -3.72648131
S        4.73609902      -1.80190131      -2.75209620
O        5.10606217      -2.68342941      -1.66838817
O        3.35797536      -1.39661920      -2.93586595
N        5.20556177      -2.50267218      -4.22016360
C        6.38386206      -3.29453559      -4.22934248
C        7.62670336      -2.68913688      -4.41234000
C        8.78746106      -3.46472011      -4.38137612
C        8.69554808      -4.83800344      -4.15525738
Br      10.26660135      -5.88761607      -4.10975129
C        7.45446018      -5.44267791      -3.95895690
C        6.29438472      -4.66669535      -3.99268354
H        2.87324670       2.63451427      -0.12143317
H        4.34324741       4.00945455      -1.53896044
H        2.38169204       2.48268356      -5.06626248
H        0.90823225       1.10300005      -3.63920505
H        4.83027686       4.87038633      -3.81338841
H        7.53449133       3.13856198      -2.80126585
H        8.07702430       1.50132162      -1.04997410
H        7.86152503      -0.54071894      -0.01584840
H        7.40359864      -1.89900482      -1.02774884
H        6.19472085      -1.10386478       0.04281024
H        4.65785014       0.39939196      -4.47638667
H        4.39115461      -2.86744028      -4.71447684
H        7.70262889      -1.62146393      -4.59758572
H        9.75353684      -2.99099302      -4.53481547
H        7.37961470      -6.51060735      -3.77125659
H        5.33092641      -5.13757950      -3.81701843
C       -1.79130207      -1.79130207      -1.79130207
C       -2.85634971      -2.48655183      -1.22110755
C       -3.68165164      -3.26894366      -2.02942295
C       -3.44276603      -3.34603910      -3.40412497
C       -2.36732795      -2.66130838      -3.96994261
C       -1.53719414      -1.88216942      -3.15976339
N       -4.40511454      -4.00096730      -4.22408303
S       -5.43160308      -3.03771518      -5.16974279
O       -4.67181594      -2.46986315      -6.26161709
O       -6.62035869      -3.82910790      -5.41014284
C       -5.88448077      -1.70611660      -4.07634051
C       -6.94581519      -1.85780962      -3.18782851
C       -7.24490994      -0.82241815      -2.29798826
C       -6.49828848       0.37417892      -2.28236186
C       -6.87492055       1.42801680      -1.27904765
C       -5.43785391       0.51107380      -3.19800977
C       -5.14630859      -0.52105056      -4.10366267
S       -4.34546891       1.92472814      -3.26555314
O       -4.72291133       2.91889057      -2.28700017
O       -2.99572068       1.40123316      -3.30273459
N       -4.64132758       2.53513805      -4.81686366
C       -5.74566979       3.41142329      -4.98442245
C       -7.01678605       2.88990337      -5.22302380
C       -8.10812365       3.75200040      -5.34799382
C       -7.92014856       5.12822408      -5.22087754
Br      -9.39752895       6.29523003      -5.38643764
C       -6.65185349       5.65026271      -4.96914838
C       -5.56101531       4.78759187      -4.84694948
H       -3.06420363      -2.40766769      -0.15732282
H       -4.53033434      -3.77886132      -1.58246674
H       -2.18445429      -2.70483081      -5.04135299
H       -0.71522293      -1.32839831      -3.60681610
H       -4.91149200      -4.78573785      -3.81682174
H       -7.53220332      -2.77387264      -3.16824320
H       -8.06952694      -0.96021194      -1.59858114
H       -7.76514344       1.13808158      -0.70959263
H       -7.11991762       2.36862612      -1.78105116
H       -6.06675965       1.57482746      -0.55611364
H       -4.31833820      -0.41157530      -4.80371528
H       -3.76399739       2.79417156      -5.26836534
H       -7.16664385       1.81950251      -5.33160933
H       -9.09558145       3.34256451      -5.54434235
H       -6.50323555       6.72120485      -4.85823324
H       -4.57809651       5.19624801      -4.62851685
C       -1.79130207       1.79130207       1.79130207
C       -2.18108841       1.33395412       3.04896656
C       -2.96157468       2.14975891       3.86868466
C       -3.34167558       3.42101874       3.43023578
C       -2.96289736       3.87041378       2.16526780
C       -2.18597788       3.05134162       1.34180744
N       -3.97893426       4.29530432       4.35592629
S       -3.06454398       5.56531486       5.00920221
O       -2.84994079       6.56608052       3.98727488
O       -3.68471764       5.90073371       6.27415808
C       -1.49064963       4.81061743       5.36567083
C       -1.29331722       4.13244806       6.56568804
C       -0.07040467       3.49695869       6.79795299
C        0.96968059       3.53037461       5.84577739
C        2.24500786       2.80312827       6.16783098
C        0.75290756       4.23258144       4.64511600
C       -0.46869300       4.88536435       4.41696448
S        1.93095395       4.31444015       3.30280771
O        3.14386580       3.60165990       3.63322683
O        1.19897886       4.00373355       2.09246742
N        2.26823200       5.97155758       3.21972761
C        3.26212344       6.48976356       4.09102884
C        2.91673343       6.88306803       5.38357188
C        3.90306227       7.35524814       6.25193120
C        5.22892033       7.41828964       5.82343271
Br       6.56480649       8.05398996       6.99955309
C        5.57781700       7.01291484       4.53564132
C        4.59047574       6.54342012       3.66742854
H       -1.86463499       0.35778924       3.40676992
H       -3.23095163       1.79961362       4.86109714
H       -3.24257759       4.86452427       1.82353622
H       -1.86986988       3.41385680       0.36671067
H       -4.57730182       3.87267007       5.06407970
H       -2.08104270       4.07921617       7.31406029
H        0.06538809       2.95805084       7.73565727
H        2.21897471       2.37809268       7.17753652
H        3.09725779       3.48849867       6.14110178
H        2.39672919       1.97049310       5.47428194
H       -0.63255308       5.41966679       3.48140891
H        2.28934975       6.27997296       2.24756796
H        1.88421047       6.84414661       5.71881454
H        3.62845697       7.67072531       7.25509095
H        6.61151641       7.04991046       4.20186990
H        4.86934785       6.20733044       2.67238276
C        1.79130207      -1.79130207       1.79130207
C        2.29189239      -1.28326411       2.98885259
C        3.07278736      -2.09646949       3.81076141
C        3.34262211      -3.41515256       3.43515544
C        2.85300386      -3.91646125       2.22911382
C        2.07561543      -3.10047385       1.40303766
N        3.98429995      -4.27042202       4.37544290
S        3.03792861      -5.43332793       5.16780451
O        2.69354756      -6.47945880       4.23028982
O        3.71888772      -5.72964519       6.41107652
C        1.54154886      -4.55457274       5.57081628
C        1.46743270      -3.79109358       6.73292705
C        0.30483551      -3.06221100       6.99826985
C       -0.79647245      -3.08564174       6.11730213
C       -1.99954442      -2.25628038       6.46921544
C       -0.70454208      -3.87439425       4.95493771
C        0.45594218      -4.62015348       4.69492616
S       -1.97227327      -3.96124628       3.69732090
O       -3.11353719      -3.14992926       4.05462886
O       -1.30464394      -3.77627943       2.42558662
N       -2.41723427      -5.59413392       3.74615354
C       -3.38125634      -5.98945554       4.71046975
C       -2.97570911      -6.32337107       6.00224451
C       -3.92952017      -6.67354748       6.96008976
C       -5.28234038      -6.67470088       6.62044152
Br      -6.57394473      -7.14517430       7.91750699
C       -5.69030848      -6.32823478       5.33281287
C       -4.73564729      -5.98079087       4.37522934
H        2.06162103      -0.26772458       3.29984854
H        3.42908723      -1.70373317       4.75884199
H        3.04660605      -4.94641510       1.93761693
H        1.67316156      -3.50133042       0.47594537
H        4.65379082      -3.84519912       5.01506165
H        2.30508650      -3.74383955       7.42539312
H        0.26580921      -2.45790600       7.90460481
H       -1.87973720      -1.77166150       7.44473019
H       -2.89284006      -2.88362969       6.54155303
H       -2.14484119      -1.46035352       5.73253351
H        0.52334942      -5.22160946       3.78866990
H       -2.52235558      -5.96060198       2.79994477
H       -1.92272177      -6.33250635       6.26896609
H       -3.60889261      -6.94332560       7.96292629
H       -6.74424891      -6.31701137       5.06750149
H       -5.05869470      -5.68969494       3.37936512
C       -0.00445707       0.01189536      -1.78238275
H       -0.66409135       0.67374010      -2.43557963
H        0.65740317      -0.63156657      -2.45157240
C       -0.90989263      -0.90692880      -0.91072765
C        0.90977584       0.90977584      -0.90977584
C       -0.00465871       1.77757030       0.00794375
H       -0.66225468       2.44313916      -0.64384735
H        0.64322798       2.43503045       0.67728295
C       -1.78241447       0.00034974      -0.00472694
H       -2.45427497      -0.65498947       0.64260836
H       -2.43311707       0.67328779      -0.65473579
C       -0.91132561       0.90220522       0.91563759
C       -0.01476271      -0.02253852       1.78660255
H       -0.67934791      -0.69751639       2.42135241
H        0.63392994       0.61504881       2.47327442
C        0.01484550      -1.77751727      -0.01636693
H        0.67870853      -2.42144646      -0.68295456
H       -0.62264859      -2.45592969       0.64226336
C        1.78714474       0.01002794       0.00389507
H        2.44202412       0.67113390       0.66197326
H        2.45385902      -0.65136977      -0.64189061
C        0.91606151      -0.90478549       0.90901405
