190
Properties=species:S:1:pos:R:3 pbc="F F F"
C        1.79119101       1.79119101      -1.79119101
C        1.60714954       3.17045529      -1.79529373
C        2.41155951       3.97345605      -2.60959442
C        3.40370761       3.40553669      -3.42137112
C        3.58134851       2.02039028      -3.39875696
C        2.77481620       1.21293806      -2.58804151
N        4.16813411       4.28941542      -4.21246642
C        5.18229728       3.96288401      -5.09473995
O        5.55973842       2.83481676      -5.38913903
C        5.85465113       5.12132522      -5.75818436
C        5.97090223       6.37597733      -5.14017115
C        6.63394121       7.42004088      -5.79177252
C        7.21476427       7.19719585      -7.04446140
C        7.09726707       5.95616881      -7.67431107
C        6.42245042       4.91936093      -7.02606186
S        8.08650063       8.51640214      -7.85530370
O        8.03680728       8.25558640      -9.27973725
O        7.62694984       9.77342912      -7.30977706
N        9.68766423       8.23186062      -7.38759496
C       10.14078740       8.80780667      -6.16939545
C       10.72043476      10.07721301      -6.17994586
C       11.13113209      10.66502554      -4.98120609
C       10.94856784       9.98298294      -3.77884296
C       10.36000856       8.71879687      -3.76428387
C        9.95416492       8.13021432      -4.96451379
H        0.84374270       3.63006842      -1.17332231
H        2.24953797       5.04817510      -2.59624741
H        4.33772427       1.53100153      -4.00454506
H        2.92661430       0.13660008      -2.59198544
H        3.89617975       5.26100843      -4.15700197
H        5.58535638       6.55425741      -4.14020462
H        6.71907679       8.39180595      -5.30788482
H        7.53180581       5.78431787      -8.65708205
H        6.34350139       3.94659265      -7.51037557
H       10.30828446       8.30036398      -8.19408345
H       10.84502229      10.62261210      -7.11151600
H       11.58284934      11.65362281      -4.99593300
H       10.21668042       8.18501049      -2.82829422
H        9.51103472       7.13851550      -4.94893659
C       11.37041300      10.58901453      -2.54256938
C       11.72370832      11.09656599      -1.50719025
Br      12.29495698      11.91723377       0.16693022
C       -1.79119101      -1.79119101      -1.79119101
C       -2.46732307      -1.23356928      -2.87200620
C       -3.27945208      -2.04282916      -3.67232874
C       -3.41944232      -3.41109579      -3.40007732
C       -2.72691646      -3.95673201      -2.31684728
C       -1.91643944      -3.14859260      -1.51076373
N       -4.25997402      -4.15249164      -4.25755029
C       -4.56132765      -5.50025559      -4.17833800
O       -4.19326655      -6.28149461      -3.30893304
C       -5.44422237      -6.02620920      -5.26372914
C       -5.45119622      -5.47955799      -6.55629651
C       -6.27550922      -6.02584158      -7.54440381
C       -7.06308791      -7.14351156      -7.24982206
C       -7.07258555      -7.69042900      -5.96473240
C       -6.25780828      -7.13357914      -4.97648580
S       -8.08414784      -7.85684016      -8.51721847
O       -9.18441996      -8.53030463      -7.85740633
O       -8.32207703      -6.85583385      -9.53224514
N       -7.09251613      -9.08232059      -9.13228309
C       -6.18955981      -8.74969007     -10.17873964
C       -6.59812355      -8.87196427     -11.50750581
C       -5.72935046      -8.50876499     -12.53924827
C       -4.46164954      -8.01503538     -12.23370882
C       -4.05465376      -7.88190876     -10.90652679
C       -4.92291769      -8.25010032      -9.87587502
H       -2.37199576      -0.17531776      -3.09981992
H       -3.79777759      -1.58519090      -4.51099199
H       -2.79728159      -5.01050989      -2.06547939
H       -1.39244322      -3.59385468      -0.66890192
H       -4.72868013      -3.61334910      -4.97216092
H       -4.79980293      -4.65319945      -6.82681602
H       -6.27794142      -5.59596218      -8.54486396
H       -7.69799110      -8.54855704      -5.72665759
H       -6.25347332      -7.56916715      -3.97782913
H       -7.62238895      -9.94807042      -9.23227252
H       -7.59286594      -9.23529180     -11.75099266
H       -6.05294514      -8.60716058     -13.57229943
H       -3.06687956      -7.49737294     -10.66573263
H       -4.59469803      -8.15948237      -8.84430640
C       -3.56609223      -7.63907330     -13.29683139
C       -2.81606297      -7.32420505     -14.18719654
Br      -1.60332911      -6.81508973     -15.62684169
C       -1.79119101       1.79119101       1.79119101
C       -1.71579247       3.17625364       1.68085243
C       -2.51937495       3.98003613       2.49519890
C       -3.40256977       3.40690795       3.42113771
C       -3.47248654       2.01501287       3.51299633
C       -2.66618562       1.20723868       2.70237146
N       -4.17440623       4.29219131       4.20341841
C       -5.09326036       3.96299192       5.18366896
O       -5.35895785       2.83701800       5.58771835
C       -5.80428361       5.11796301       5.81191409
C       -6.06283151       6.30868387       5.11553533
C       -6.75650488       7.34967893       5.73957079
C       -7.22574005       7.18397444       7.04670703
C       -6.96616060       6.00781717       7.75376918
C       -6.26110122       4.97515270       7.13161931
S       -8.13689485       8.49586453       7.82544709
O       -7.96378601       8.35156420       9.25678072
O       -7.81785508       9.73637287       7.15592806
N       -9.74058317       8.06024740       7.50628924
C      -10.32451502       8.50475651       6.28871799
C      -10.99938734       9.72571109       6.25249519
C      -11.54065245      10.18661782       5.05009344
C      -11.39297124       9.42765289       3.88976962
C      -10.70993689       8.21222150       3.92093092
C      -10.17332948       7.75031372       5.12524983
H       -1.03779756       3.63995280       0.96938307
H       -2.44331364       5.05932920       2.39131764
H       -4.14233494       1.52095194       4.20998399
H       -2.73263708       0.12634177       2.79622097
H       -3.98402670       5.27362423       4.05653922
H       -5.76594652       6.43568529       4.07818660
H       -6.95225993       8.27187483       5.19463279
H       -7.31350885       5.88231026       8.77738663
H       -6.07138805       4.05154400       7.67753755
H      -10.30453624       8.14643988       8.35175577
H      -11.09837129      10.33183416       7.14894495
H      -12.06605587      11.13796933       5.02837995
H      -10.59354813       7.61865822       3.01777879
H       -9.65628317       6.79518912       5.14701451
C      -11.94946761       9.90293030       2.64959900
C      -12.41553332      10.30097514       1.61095610
Br     -13.16912215      10.94457998      -0.06844161
C        1.79119101      -1.79119101       1.79119101
C        1.98463933      -1.45958143       3.12867779
C        2.79863267      -2.26535937       3.93061794
C        3.42135568      -3.40567620       3.40358355
C        3.20962409      -3.72934195       2.06152971
C        2.39885255      -2.92239656       1.25454666
N        4.22675188      -4.16033599       4.28292808
C        4.94624192      -5.30467062       3.98900869
O        5.05696238      -5.83627190       2.89045992
C        5.66947641      -5.92286546       5.14181885
C        5.20118143      -5.82470551       6.46116377
C        5.89971037      -6.44474465       7.50129958
C        7.04461844      -7.19577687       7.21602621
C        7.52639763      -7.29267319       5.90867613
C        6.83335172      -6.66063578       4.87388572
S        7.91121661      -8.01118870       8.53580115
O        9.28970752      -8.16549782       8.11692559
O        7.57757432      -7.35368810       9.77889360
N        7.24013696      -9.56424981       8.50273303
C        6.05971998      -9.79880352       9.25946602
C        6.16267228     -10.23329225      10.58162910
C        5.00753888     -10.42708980      11.34273503
C        3.75771728     -10.17386866      10.77880780
C        3.65242447      -9.72952711       9.46113773
C        4.80840338      -9.54078430       8.69970536
H        1.51087673      -0.58002126       3.55623545
H        2.93508038      -1.98657526       4.97230484
H        3.66453574      -4.60323057       1.60550456
H        2.25404685      -3.19011860       0.21103437
H        4.32099642      -3.77920056       5.21399317
H        4.27877378      -5.30218528       6.69885934
H        5.53239015      -6.36323863       8.52313878
H        8.42728408      -7.86070804       5.68521362
H        7.20029364      -6.74840611       3.85176985
H        7.97632595     -10.26795975       8.55844618
H        7.13493544     -10.41100061      11.03321434
H        5.09410650     -10.76655456      12.37174409
H        2.67927322      -9.53152249       9.01918942
H        4.71967886      -9.21002415       7.66878380
C        2.56657945     -10.37206623      11.56335123
C        1.56900152     -10.53805670      12.22040635
Br      -0.04399762     -10.80644924      13.28280891
C       -0.00445707       0.01189536      -1.78238275
H       -0.66409135       0.67374010      -2.43557963
H        0.65740317      -0.63156657      -2.45157240
C       -0.90989263      -0.90692880      -0.91072765
C        0.90977584       0.90977584      -0.90977584
C       -0.00465871       1.77757030       0.00794375
H       -0.66225468       2.44313916      -0.64384735
H        0.64322798       2.43503045       0.67728295
C       -1.78241447       0.00034974      -0.00472694
H       -2.45427497      -0.65498947       0.64260836
H       -2.43311707       0.67328779      -0.65473579
C       -0.91132561       0.90220522       0.91563759
C       -0.01476271      -0.02253852       1.78660255
H       -0.67934791      -0.69751639       2.42135241
H        0.63392994       0.61504881       2.47327442
C        0.01484550      -1.77751727      -0.01636693
H        0.67870853      -2.42144646      -0.68295456
H       -0.62264859      -2.45592969       0.64226336
C        1.78714474       0.01002794       0.00389507
H        2.44202412       0.67113390       0.66197326
H        2.45385902      -0.65136977      -0.64189061
C        0.91606151      -0.90478549       0.90901405
