137
Properties=species:S:1:pos:R:3 pbc="F F F"
C        0.00000000       0.00000000       0.00000000
C        0.86757181       0.86757181      -0.86757181
C        0.76770767       2.23614584      -0.96818478
C        1.78189658       2.63802204      -1.86785545
C        2.43940601       1.49016743      -2.26863038
O        1.87051527       0.40073054      -1.66181908
C        3.56834814       1.32130729      -3.16600517
O        4.16020019       2.29212101      -3.62655886
N        3.86457542      -0.00418506      -3.44446545
C        4.90005579      -0.49717218      -4.26843587
C        5.89792853       0.31490611      -4.82021227
C        6.90306151      -0.22700084      -5.62669093
C        6.91070748      -1.58776422      -5.90589294
C        5.90797137      -2.39913341      -5.37875770
C        4.92302365      -1.87355382      -4.53825608
O        6.00792287      -3.76156090      -5.72968951
C        4.88775478      -4.55898453      -5.96111964
O        3.72151439      -4.22756144      -5.77837941
C        5.30935013      -5.84820168      -6.45981820
C        4.59574703      -7.01734490      -6.65651518
C        5.49839532      -7.96305747      -7.20250256
C        6.70567045      -7.31469805      -7.32061630
O        6.60595650      -6.03890110      -6.86344087
H        0.05863567       2.87061345      -0.45367518
H        2.02154385       3.64162887      -2.19548297
H        3.22721272      -0.68430545      -3.04312881
H        5.93645207       1.38330402      -4.63222745
H        7.67470524       0.41982921      -6.03645340
H        7.68899478      -2.01105553      -6.53467278
H        4.16922100      -2.52434405      -4.10700954
H        3.54691619      -7.15868789      -6.43050173
H        5.28885705      -8.98585619      -7.48395566
C        7.90889877      -7.89408515      -7.85927409
C        8.91660248      -8.37932184      -8.31040000
Br      10.54597415      -9.16390854      -9.03983242
C       -0.86757181      -0.86757181      -0.86757181
C       -1.21168064      -0.58987891      -2.17047874
C       -2.01059190      -1.67298598      -2.60419620
C       -2.11225884      -2.54738990      -1.53855507
O       -1.41830106      -2.04714724      -0.46761659
C       -2.79579391      -3.82429253      -1.43557415
O       -3.32376854      -4.33927567      -2.41583585
N       -2.80024393      -4.35137392      -0.15323796
C       -3.37083547      -5.57147244       0.27098843
C       -3.90233503      -6.52064176      -0.61007012
C       -4.45196987      -7.71524679      -0.13553495
C       -4.49278890      -7.96618229       1.23013499
C       -3.98613504      -7.01633928       2.11487866
C       -3.39765485      -5.83801080       1.64793975
O       -4.08329577      -7.36964909       3.47689337
C       -4.33551369      -6.43167992       4.47730372
O       -4.38161509      -5.21591281       4.32519554
C       -4.54274943      -7.11303261       5.73481539
C       -4.63956599      -6.61917739       7.02382607
C       -4.88167004      -7.72800931       7.87183894
C       -4.93245788      -8.83155675       7.05242592
O       -4.71701761      -8.47299080       5.75951214
H       -0.91967750       0.28001177      -2.74325858
H       -2.46530738      -1.81735557      -3.57599274
H       -2.38576301      -3.76012146       0.55984841
H       -3.89431292      -6.37231812      -1.68535251
H       -4.84966767      -8.44364563      -0.83767454
H       -4.92195955      -8.89244167       1.60178920
H       -2.97576778      -5.12394162       2.34782290
H       -4.54653673      -5.57873295       7.30653966
H       -5.01319911      -7.71884161       8.94508421
C       -5.18606634     -10.17937813       7.49135676
C       -5.39846342     -11.30817854       7.85896133
Br      -5.74189155     -13.13335332       8.45334684
C       -0.86757181       0.86757181       0.86757181
C       -1.28472816       0.54811727       2.13919285
C       -2.05368869       1.64703048       2.58705490
C       -2.06571653       2.57224467       1.56024262
O       -1.34531877       2.08852941       0.49921672
C       -2.68558722       3.88322853       1.48684485
O       -3.23542496       4.37791790       2.46553720
N       -2.60601413       4.46701815       0.23182354
C       -3.10061867       5.73043799      -0.15973718
C       -3.62979851       6.66301682       0.74023158
C       -4.10226923       7.90227157       0.29821081
C       -4.06747463       8.21595558      -1.05459401
C       -3.56294474       7.28403901      -1.95938809
C       -3.05062227       6.05954002      -1.52243638
O       -3.57994478       7.70236702      -3.30626031
C       -3.82670368       6.82319976      -4.36001355
O       -3.93448834       5.60534287      -4.26749885
C       -3.94372326       7.56935926      -5.59211588
C       -4.00187774       7.13902060      -6.90598103
C       -4.15375139       8.29499547      -7.71090645
C       -4.19340129       9.36177840      -6.84359099
O       -4.05535735       8.93574522      -5.56060630
H       -1.05937621      -0.35940397       2.68295206
H       -2.54667588       1.76882503       3.54315478
H       -2.18542665       3.88955652      -0.48894710
H       -3.67904792       6.46631747       1.80661815
H       -4.49943211       8.61629128       1.01526445
H       -4.43663351       9.17714305      -1.40116453
H       -2.62878367       5.35858017      -2.23547735
H       -3.94249155       6.10910566      -7.23286719
H       -4.23491924       8.34025638      -8.78821911
C       -4.36526383      10.73839765      -7.22957377
C       -4.50919871      11.89131627      -7.55283435
Br      -4.74192923      13.75548817      -8.07551937
C        0.86757181      -0.86757181       0.86757181
C        1.16955144      -2.18619190       0.61629495
C        2.02326944      -2.59946779       1.66503685
C        2.18908647      -1.50990025       2.49921710
O        1.47014555      -0.44827986       2.01463948
C        2.97535113      -1.36860370       3.71170577
O        3.71287888      -2.27070721       4.09529397
N        2.78109325      -0.16038070       4.36338187
C        3.39895322       0.28147567       5.55384192
C        4.44245916      -0.40861704       6.18197072
C        5.02136001       0.07683364       7.35822524
C        4.54942647       1.25125942       7.93066915
C        3.49599095       1.93206690       7.32367162
C        2.93857080       1.47671263       6.12586773
O        3.09242413       3.10732249       7.99094984
C        1.76074916       3.51697954       8.04612027
O        0.82571241       2.99893083       7.44555079
C        1.64293520       4.65325563       8.93128708
C        0.58167249       5.51033107       9.16357589
C        1.00242991       6.42497728      10.16038778
C        2.28901059       6.06648476      10.48906288
O        2.69074056       5.00376037       9.74351608
H        0.82559045      -2.77835074      -0.22101689
H        2.47571916      -3.57210940       1.81082713
H        2.07656874       0.44452651       3.95399384
H        4.84699292      -1.33002618       5.77496445
H        5.83792250      -0.46907967       7.82398567
H        4.99556373       1.62924176       8.84629005
H        2.14221841       2.03692938       5.64659747
H       -0.37908886       5.46940182       8.66722070
H        0.43229214       7.23651799      10.59118235
C        3.10100358       6.71367936      11.48676349
C        3.78104772       7.25570485      12.32233775
Br       4.88062157       8.13211421      13.67339067
