141
Properties=species:S:1:pos:R:3 pbc="F F F"
C        0.00000000       0.00000000       0.00000000
C        3.23625248       4.65873915      -3.25615835
O        3.26564405       3.24120914      -3.36696848
C        2.49214435       2.51002383      -2.50740853
C        1.63069518       3.07576082      -1.55803048
C        0.83113673       2.26465611      -0.74561373
C        0.88131813       0.88131813      -0.88131813
C        1.73243027       0.29772311      -1.81373600
C        2.54948205       1.10794194      -2.61927600
C        3.43995846       0.41204644      -3.56455496
N        3.23189677      -0.75773336      -4.08258271
C        4.36436585      -0.96758972      -4.82824585
C        4.57641698      -2.08434903      -5.53678076
C        5.77365687      -2.38354623      -6.31905134
C        5.84209716      -2.03024584      -7.67127091
C        6.98305606      -2.33282774      -8.41916043
C        8.05390488      -2.98772030      -7.81280212
C        7.99636864      -3.34157356      -6.46606315
C        6.85542310      -3.03904034      -5.71916794
C        5.28686886       0.19909901      -4.69960772
O        6.37696040       0.40144934      -5.19275623
O        4.60831082       1.02522500      -3.85560070
H        3.92448289       5.06658364      -4.00279335
H        3.58248801       4.98546211      -2.27009196
H        2.23736816       5.04963340      -3.47613244
H        1.54882120       4.15055646      -1.42718721
H        0.16842089       2.72550888      -0.01665498
H        1.76982079      -0.78546225      -1.91311961
H        3.81778972      -2.86240955      -5.53860822
H        5.01249320      -1.51630433      -8.15115117
H        7.02686056      -2.05161527      -9.46783580
H        8.83071940      -3.84804547      -5.98869331
H        6.81948026      -3.31610513      -4.66821123
C        9.22783164      -3.30400443      -8.58446286
C       10.21099531      -3.56889240      -9.23072873
Br      11.80068780      -3.99719384     -10.27568598
C       -3.74497919      -2.88785666      -4.51831412
O       -3.34889072      -3.30670058      -3.21823037
C       -2.51212292      -2.49294468      -2.50450909
C       -2.06345526      -1.24472617      -2.95630504
C       -1.24827980      -0.44361564      -2.14951113
C       -0.88131813      -0.88131813      -0.88131813
C       -1.31106177      -2.11879317      -0.41403445
C       -2.11534078      -2.93358024      -1.22777898
C       -2.50814931      -4.23915464      -0.66925590
N       -2.62527193      -4.52175947       0.59028529
C       -2.94470487      -5.85603448       0.57571737
C       -3.14756228      -6.57122534       1.68993892
C       -3.45312045      -7.99904465       1.74300313
C       -4.78136300      -8.43920813       1.73744891
C       -5.06870240      -9.80509056       1.80440421
C       -4.02672259     -10.72835185       1.87608773
C       -2.70052477     -10.30008282       1.87974936
C       -2.41406487      -8.93456764       1.81308182
C       -3.00039659      -6.35493969      -0.83023931
O       -3.24414309      -7.46081464      -1.26620824
O       -2.69121616      -5.24351523      -1.55440513
H       -4.38932778      -3.66626069      -4.93827142
H       -2.87904745      -2.77936018      -5.17963446
H       -4.32832282      -1.96234890      -4.47246228
H       -2.33629223      -0.85708366      -3.93318899
H       -0.91322725       0.52256073      -2.51991824
H       -1.01797627      -2.45743073       0.57792884
H       -3.07027299      -6.07978616       2.65607076
H       -5.60003405      -7.72579060       1.67848461
H       -6.10358967     -10.13625406       1.79676264
H       -1.88551638     -11.01679567       1.93094481
H       -1.37658090      -8.60869434       1.81368886
C       -4.32260912     -12.13568532       1.95000437
C       -4.57041409     -13.31432710       2.01190955
Br      -4.97109377     -15.22009117       2.11200499
C       -3.33855601       3.15947729       4.65311667
O       -3.36522918       3.27285643       3.23573606
C       -2.50839636       2.49204970       2.50913064
C       -1.64203196       1.54731675       3.07513776
C       -0.82898685       0.74764546       2.26477427
C       -0.88131813       0.88131813       0.88131813
C       -1.73030747       1.81574213       0.29783978
C       -2.53548804       2.63250092       1.10871104
C       -3.38863094       3.61306158       0.41486734
N       -3.84859493       3.49977755      -0.79162637
C       -4.51767624       4.68336121      -0.97601548
C       -5.14759868       4.99699053      -2.11574050
C       -5.84444337       6.25215518      -2.38743657
C       -7.20908614       6.37941003      -2.10537395
C       -7.87454637       7.57666538      -2.38182299
C       -7.17349089       8.64482960      -2.93933378
C       -5.81368185       8.52879205      -3.22161566
C       -5.14920920       7.33161033      -2.94526883
C       -4.40654236       5.53155251       0.24748072
O       -4.85013063       6.63567323       0.48536210
O       -3.65028849       4.76097125       1.07787677
H       -4.06875106       3.86645399       5.05865483
H       -2.35560313       3.42954870       5.05289026
H       -3.63521190       2.15511255       4.97280955
H       -1.57839647       1.39923737       4.14893104
H       -0.16537205       0.01953626       2.72567644
H       -1.76453416       1.91811570      -0.78517170
H       -5.14587684       4.28351120      -2.93539965
H       -7.76267934       5.55211202      -1.66745132
H       -8.93378274       7.66571582      -2.15641746
H       -5.26276403       9.36055806      -3.65195485
H       -4.08750852       7.25003704      -3.16595918
C       -7.86004619       9.87707644      -3.22883256
C       -8.43503626      10.90908316      -3.47128778
Br      -9.36474656      12.57775076      -3.86331738
C        3.31484564      -4.65561854       3.18068578
O        3.25890415      -3.24695529       3.36796222
C        2.49233623      -2.51082527       2.50641520
C        1.71546023      -3.06738974       1.48163650
C        0.91593697      -2.25559944       0.66987016
C        0.88131813      -0.88131813       0.88131813
C        1.64778710      -0.30654718       1.88955510
C        2.46506659      -1.11614179       2.69549162
C        3.26381282      -0.42803793       3.72470910
N        2.96340849       0.69822303       4.29156066
C        4.04122407       0.92574107       5.10953898
C        4.15255074       2.01074477       5.88704274
C        5.28800113       2.32872175       6.74988260
C        5.30433172       1.90438757       8.08317807
C        6.38530189       2.22468050       8.90876737
C        7.44843960       2.96834589       8.39889300
C        7.44265908       3.39350251       7.07170166
C        6.36164679       3.07320314       6.24710705
C        5.03312600      -0.18136470       4.97108489
O        6.10515776      -0.35293382       5.51307438
O        4.44759017      -0.99374689       4.04779946
H        3.98428025      -5.06756805       3.94201159
H        3.73062076      -4.90780079       2.19962054
H        2.32916048      -5.11062183       3.32335169
H        1.70094711      -4.13599971       1.28961806
H        0.31964433      -2.70939790      -0.11845748
H        1.61914729       0.76983073       2.04816160
H        3.35251977       2.74616773       5.88763635
H        4.48053368       1.32112501       8.48793137
H        6.38912610       1.88790971       9.94186471
H        8.27147495       3.96942880       6.66932109
H        6.36601403       3.40638313       5.21195546
C        8.56025202       3.30271706       9.25075511
C        9.49139492       3.58275291       9.96418963
Br      10.99697424       4.03554721      11.11775291
