193
Properties=species:S:1:pos:R:3 pbc="F F F"
C        0.00000000       0.00000000       0.00000000
O        9.57774973       6.08170625      -4.01846616
C        8.66426550       5.48028004      -3.46888346
C        7.21082916       5.88928410      -3.53465759
C        6.69375228       6.07108646      -4.95862128
C        6.65326684       4.78318177      -5.77586712
C        5.75418254       3.74195505      -5.16465769
O        6.14976428       2.80492170      -4.48252069
O        4.44739755       3.99281299      -5.45206231
C        3.53272201       3.09987262      -4.81168924
C        3.32994340       3.42537882      -3.33213695
O        3.81507960       4.42873423      -2.80807079
C        2.48304139       2.50764250      -2.50749134
C        2.39221134       2.74611607      -1.12727358
C        1.59396958       1.93516244      -0.31514781
C        0.88153815       0.88153815      -0.88153815
C        0.96455877       0.62951138      -2.24992957
C        1.76474761       1.44043371      -3.06398677
O        8.81193055       4.42212438      -2.62982909
C       10.15664240       4.10429628      -2.28987885
C       10.92844159       3.24783535      -3.29401707
O       10.41672563       2.79123812      -4.31549438
C       12.36534533       2.94459542      -2.98563804
C       12.98930948       3.39434810      -1.81214252
C       14.33648317       3.10603730      -1.56902050
C       15.06444304       2.36230502      -2.49418814
C       14.45601101       1.89649954      -3.65761766
C       13.10872166       2.18643467      -3.90233929
H        7.12764191       6.83615385      -2.98731311
H        6.59457522       5.16550301      -2.99104683
H        7.31674899       6.80299260      -5.48675574
H        5.68397165       6.49680520      -4.90428631
H        7.65526075       4.35355848      -5.88728713
H        6.29749874       4.99215330      -6.79171602
H        3.86382010       2.06284562      -4.93932267
H        2.57153850       3.22119450      -5.32126511
H        2.94346345       3.56948249      -0.67500953
H        1.53494483       2.13754414       0.75138523
H        0.40780310      -0.19314747      -2.69314980
H        1.79817337       1.21623910      -4.12595729
H       10.09937978       3.53637264      -1.35462879
H       10.71020819       5.02863546      -2.08977889
H       12.45870116       3.97532748      -1.06377042
H       14.80648885       3.46970055      -0.65784335
H       15.01876664       1.31176479      -4.38093530
H       12.64392620       1.81935829      -4.81623694
C       16.45391577       2.07840400      -2.24445683
C       17.61759919       1.84063689      -2.03530686
Br      19.49917685       1.45618759      -1.69712904
O       -8.65067562      -3.36487485      -7.66237167
C       -7.86230659      -2.90349891      -6.84762349
C       -7.36454010      -3.64302448      -5.62720627
C       -6.76715119      -5.01036783      -5.94594099
C       -5.48619550      -4.95307671      -6.77304352
C       -4.38488627      -4.19929781      -6.07661120
O       -4.09368613      -3.03297658      -6.31054396
O       -3.77376550      -4.97714876      -5.14135859
C       -2.78809843      -4.28672635      -4.36945910
C       -3.40313538      -3.38373763      -3.30058617
O       -4.61262778      -3.37034576      -3.06891108
C       -2.49426177      -2.51540176      -2.48851170
C       -3.07121754      -1.60597592      -1.58840754
C       -2.26757826      -0.79004489      -0.78665668
C       -0.88153815      -0.88153815      -0.88153815
C       -0.29361169      -1.77690894      -1.77347908
C       -1.09767122      -2.59369499      -2.57780187
O       -7.39223045      -1.62893429      -6.84271929
C       -7.98902353      -0.76169803      -7.80009597
C       -7.42569865      -0.82456793      -9.22002743
O       -6.46579270      -1.53006933      -9.52759610
C       -8.07400451       0.03977606     -10.26135034
C       -9.13855447       0.90265665      -9.95990227
C       -9.72854568       1.67959565     -10.96259094
C       -9.25385744       1.60230020     -12.26937896
C       -8.18857935       0.76094916     -12.58249801
C       -7.59927057      -0.01815211     -11.58007294
H       -8.22751585      -3.76272907      -4.96086395
H       -6.64177198      -3.02432075      -5.08503233
H       -7.50484603      -5.61936498      -6.48228633
H       -6.56296124      -5.52397783      -4.99812408
H       -5.66483528      -4.48402844      -7.74724265
H       -5.12855983      -5.96760896      -6.98519927
H       -2.12501830      -3.71345977      -5.02751032
H       -2.19420445      -5.05524295      -3.86455070
H       -4.15444987      -1.52876027      -1.50474533
H       -2.73352092      -0.09361618      -0.09396665
H        0.78918156      -1.84927036      -1.84771663
H       -0.60232604      -3.28287967      -3.25516404
H       -7.81746017       0.25413455      -7.42705559
H       -9.07096766      -0.93410713      -7.82354775
H       -9.53835181       0.99508869      -8.95453595
H      -10.55841187       2.33706957     -10.71269044
H       -7.81144414       0.70025868     -13.60028127
H       -6.76873478      -0.67420121     -11.83658544
C       -9.87246908       2.39549197     -13.29979949
C      -10.39055632       3.05979007     -14.16277668
Br     -11.22825959       4.13390392     -15.55813781
O       -5.67478555       4.29773741       9.70539917
C       -5.09953934       3.72395255       8.78993710
C       -5.61476989       3.64886143       7.37113953
C       -5.94151139       5.01244684       6.76950178
C       -4.72618909       5.91375653       6.57237011
C       -3.70780622       5.31108335       5.64190572
O       -2.69547902       4.72968734       6.01204031
O       -4.07230906       5.47890125       4.34106254
C       -3.20027352       4.83547714       3.40853321
C       -3.42502356       3.32533362       3.33710199
O       -4.34818612       2.76992508       3.93377342
C       -2.50938156       2.50560661       2.48318707
C       -2.64722341       1.10902654       2.50935104
C       -1.83527535       0.29788151       1.71112297
C       -0.88153815       0.88153815       0.88153815
C       -0.72986672       2.26672264       0.84741036
C       -1.54179313       3.07993997       1.64743499
O       -3.97236914       2.97611728       8.91539761
C       -3.53453712       2.76371452      10.25256589
C       -2.70481373       3.88244750      10.88303279
O       -2.36542654       4.89159406      10.26643754
C       -2.27734918       3.70747078      12.31075883
C       -2.59029013       2.55623010      13.04927986
C       -2.18905980       2.43821273      14.38426844
C       -1.46851374       3.46702624      14.98539623
C       -1.13773123       4.61058892      14.26180806
C       -1.54070782       4.73007267      12.92671513
H       -6.52041499       3.03076240       7.39993148
H       -4.89714628       3.11250403       6.74147474
H       -6.66554948       5.53335143       7.40759643
H       -6.43258805       4.85072008       5.80175501
H       -4.23615870       6.13193629       7.52801137
H       -5.03719167       6.88189557       6.16228082
H       -2.15515504       5.06158385       3.64924950
H       -3.42838571       5.25995458       2.42565781
H       -3.39218251       0.64290205       3.15287090
H       -1.95900248      -0.78172809       1.74382936
H        0.01469022       2.72338073       0.19911492
H       -1.39784468       4.15460226       1.58792282
H       -2.90212031       1.86961883      10.21864207
H       -4.39907781       2.54136318      10.88818154
H       -3.14848267       1.72995034      12.61936605
H       -2.44744484       1.54217780      14.94441010
H       -0.57159596       5.41468280      14.72518796
H       -1.27876611       5.62945540      12.37129992
C       -1.06815237       3.34536405      16.36326018
C       -0.73284972       3.24347197      17.51722125
Br      -0.19069369       3.07872109      19.38307869
O        3.45992709      -8.94138383       7.27661121
C        2.96618891      -8.05403795       6.59320214
C        3.39479695      -6.60535995       6.63461395
C        4.89286177      -6.40777014       6.42282811
C        5.38221217      -6.79866525       5.03143832
C        4.72503337      -5.99279818       3.94296373
O        3.78285981      -6.38713227       3.26721459
O        5.30124541      -4.76498409       3.82604336
C        4.65349376      -3.90982148       2.88096864
C        3.35415358      -3.31265540       3.42065020
O        2.99585619      -3.46728725       4.58874118
C        2.51208568      -2.48411985       2.50196971
C        1.26653967      -2.03308424       2.96597708
C        0.45209652      -1.23399549       2.15818783
C        0.88153815      -0.88153815       0.88153815
C        2.11410858      -1.32490454       0.40498660
C        2.93002541      -2.12630566       1.21283701
O        1.89236212      -8.19789927       5.77362264
C        1.24339090      -9.46223509       5.84519155
C        1.85968517     -10.59150572       5.01910312
O        2.82454047     -10.42480888       4.27410878
C        1.22704532     -11.94845655       5.12007692
C        0.09453480     -12.18836915       5.91289614
C       -0.45560964     -13.47198981       5.99516079
C        0.11958673     -14.52008390       5.28126558
C        1.23587047     -14.29566119       4.47859655
C        1.78794010     -13.01199790       4.39755762
H        3.10716322      -6.22253041       7.62141524
H        2.82298023      -6.02599124       5.90215359
H        5.45052819      -6.98847488       7.16749426
H        5.12793974      -5.35171662       6.60540679
H        5.20218266      -7.86124130       4.83268240
H        6.46685023      -6.65544149       4.95907635
H        4.47329136      -4.44889053       1.94380650
H        5.34735684      -3.08760683       2.67903444
H        0.92275546      -2.30104213       3.96415787
H       -0.50825740      -0.89274815       2.53661300
H        2.45044856      -1.04946445      -0.59210758
H        3.88574204      -2.44612292       0.80850479
H        0.22954113      -9.29673598       5.46410410
H        1.16332505      -9.77200875       6.89328873
H       -0.38638509     -11.40001354       6.48417062
H       -1.32891547     -13.64175475       6.62119347
H        1.68600498     -15.10960331       3.91585844
H        2.66208077     -12.84847426       3.76896640
C       -0.44373367     -15.84173515       5.37877512
C       -0.91551450     -16.94861807       5.46043936
Br      -1.67834420     -18.73835414       5.59248353
