181
Properties=species:S:1:pos:R:3 pbc="F F F"
C        0.00000000       0.00000000       0.00000000
C        0.88126058       0.88126058      -0.88126058
C        1.39782740       0.37527077      -2.07009397
C        2.20380167       1.18624774      -2.87470259
C        2.51195852       2.49855132      -2.48943237
C        1.98393702       2.99159643      -1.29432972
C        1.16586544       2.18696426      -0.49275045
N        3.34684782       3.24014562      -3.35229686
C        3.89861756       4.48823518      -3.11579044
O        3.73297996       5.17012474      -2.11051270
C        4.77889836       5.03957088      -4.19573878
C        5.02060682       6.41764205      -4.20525279
C        5.84644664       6.99257848      -5.17580919
C        6.46240453       6.20646659      -6.16309123
C        7.33364133       6.89695663      -7.17478456
C        6.21933224       4.81983569      -6.15250568
C        5.39008573       4.24388926      -5.16967015
S        6.86060508       3.71002243      -7.40207716
O        6.01976309       2.52707932      -7.41695447
O        7.09419467       4.45919037      -8.61693612
N        8.39138900       3.32037541      -6.78988415
C        8.49824519       2.14272294      -5.99740511
C        8.32213192       2.21456329      -4.61674103
C        8.37395294       1.04858988      -3.84825893
C        8.59138830      -0.18088230      -4.46970205
C        8.75519663      -0.25727806      -5.85221063
C        8.70440699       0.90852547      -6.61911362
H        1.18452566      -0.64465112      -2.37879567
H        2.60140562       0.76772992      -3.79617715
H        2.17544518       4.00672121      -0.96086476
H        0.75969129       2.59452180       0.42958354
H        3.54405385       2.79021240      -4.23453518
H        4.56364597       7.05859060      -3.45189588
H        6.00325045       8.07030862      -5.15047248
H        7.52670480       7.93720832      -6.88970395
H        6.84373570       6.91784333      -8.15276653
H        8.30885466       6.40596499      -7.24631588
H        5.25920141       3.16565981      -5.17189798
H        9.09319123       3.43484836      -7.52348760
H        8.16116310       3.17129814      -4.12737155
H        8.24593225       1.10921424      -2.77015917
H        8.91285148      -1.21521240      -6.34176384
H        8.80850076       0.84068603      -7.69866268
C        8.64353489      -1.38302365      -3.67866670
C        8.68720766      -2.38981703      -3.01617460
Br       8.75782282      -4.01771676      -1.94498090
C       -0.88126058      -0.88126058      -0.88126058
C       -1.71167746      -0.29812413      -1.83339055
C       -2.51651504      -1.10915038      -2.63908657
C       -2.50957545      -2.50288698      -2.48747978
C       -1.66903324      -3.07224873      -1.52858118
C       -0.85208819      -2.26430919      -0.72918277
N       -3.36618259      -3.24313443      -3.32997328
C       -3.63570986      -4.60014419      -3.26678913
O       -3.15138184      -5.39416453      -2.46807103
C       -4.61351234      -5.12949371      -4.27120197
C       -4.61319762      -6.50544932      -4.52485473
C       -5.51185059      -7.06490904      -5.43807468
C       -6.44401217      -6.26693286      -6.12101733
C       -7.37520910      -6.94009660      -7.09007682
C       -6.44425139      -4.88263191      -5.86479031
C       -5.53994322      -4.32358794      -4.94011397
S       -7.51040921      -3.73334015      -6.72895530
O       -6.90535829      -2.41696183      -6.64147675
O       -7.85948839      -4.29615506      -8.01467771
N       -8.92452557      -3.77984201      -5.79728099
C       -9.06407119      -2.80280132      -4.77150074
C       -8.59590361      -3.07105014      -3.48648249
C       -8.68541802      -2.08975447      -2.49562926
C       -9.23348363      -0.84448829      -2.80223612
C       -9.69095780      -0.56898536      -4.09018604
C       -9.60213846      -1.55060066      -5.07930695
H       -1.74422849       0.78123725      -1.95567898
H       -3.16198001      -0.63122343      -3.37210925
H       -1.61117306      -4.14669551      -1.38516258
H       -0.20005954      -2.73004806       0.00547806
H       -3.81583373      -2.70008985      -4.05287785
H       -3.90746283      -7.15664819      -4.01002143
H       -5.47376597      -8.13989528      -5.61037031
H       -7.32459202      -8.03081493      -6.99821012
H       -7.10250431      -6.69178175      -8.12005951
H       -8.41321069      -6.65713092      -6.89079393
H       -5.59828930      -3.25743756      -4.74103234
H       -9.73312849      -3.91045808      -6.40794062
H       -8.17614787      -4.04276886      -3.24091606
H       -8.32822374      -2.30554868      -1.49153325
H      -10.10776402       0.40460726      -4.33624616
H       -9.93781601      -1.32264809      -6.08738537
C       -9.32480629       0.16773168      -1.78210334
C       -9.40128901       1.01546591      -0.92774213
Br      -9.52495510       2.38618045       0.45368769
C       -0.88126058       0.88126058       0.88126058
C       -1.42047212       2.05620066       0.36651936
C       -2.22788237       2.85992825       1.17694137
C       -2.48705062       2.50471422       2.50817738
C       -1.93979982       1.32140940       3.00865394
C       -1.14179990       0.50751548       2.19626477
N       -3.29717674       3.38277177       3.25934180
C       -3.56773865       3.31879598       4.61610855
O       -3.15618390       2.46439683       5.39303667
C       -4.44195940       4.40246236       5.16978625
C       -5.07259160       4.17335834       6.39755172
C       -5.88771299       5.15049088       6.97663045
C       -6.09203633       6.39032480       6.34960122
C       -6.98466868       7.38889123       7.03182261
C       -5.45663007       6.62044958       5.11459397
C       -4.63218068       5.63467084       4.53679361
S       -5.70004374       8.11412127       4.15853965
O       -5.37408949       7.81309733       2.77661006
O       -6.98397573       8.68455921       4.50178622
N       -4.53454057       9.15619272       4.81091528
C       -3.26742208       9.20669418       4.16425698
C       -2.24818915       8.34331288       4.56193422
C       -1.02339116       8.35808024       3.88933034
C       -0.83276294       9.22988435       2.81756076
C       -1.85499602      10.08571995       2.40941323
C       -3.07811743      10.07103489       3.08289375
H       -1.21835929       2.35803758      -0.65772666
H       -2.63336352       3.77656989       0.75537928
H       -2.12634088       0.99099194       4.02569834
H       -0.73273897      -0.41304737       2.60493795
H       -3.71747338       4.12813636       2.72319169
H       -4.93344230       3.22501317       6.91567698
H       -6.36455906       4.92879728       7.93067522
H       -7.22236700       7.07642562       8.05482446
H       -7.93403086       7.48383313       6.49648159
H       -6.49036761       8.36201995       7.10874798
H       -4.12844106       5.86565817       3.60265998
H       -4.96438811      10.05664967       5.03048941
H       -2.38932043       7.66859464       5.40191772
H       -0.22685841       7.69013553       4.20831173
H       -1.71443486      10.75823889       1.56672916
H       -3.87959733      10.72271369       2.74553845
C        0.42859608       9.24472966       2.12304436
C        1.48498427       9.25716261       1.54138688
Br       3.19307461       9.27726565       0.60089592
C        0.88126058      -0.88126058       0.88126058
C        1.47958853      -2.01772806       0.34587555
C        2.28676313      -2.82156790       1.15642097
C        2.48695290      -2.50544783       2.50754149
C        1.88078896      -1.36039341       3.02868079
C        1.08271745      -0.54600461       2.21685809
N        3.30154354      -3.38131309       3.25643367
C        3.52264552      -3.35659090       4.62340675
O        3.05422724      -2.54523644       5.41415372
C        4.41542126      -4.42853656       5.17025020
C        4.99469725      -4.22184721       6.42695721
C        5.82376036      -5.19033917       7.00073478
C        6.09381085      -6.39916605       6.33898546
C        6.99749490      -7.39007775       7.01780988
C        5.51005319      -6.60678076       5.07483967
C        4.67132030      -5.63002101       4.50230383
S        5.83958084      -8.05601704       4.07710679
O        5.55097211      -7.71720309       2.69562168
O        7.13047402      -8.59370012       4.44614701
N        4.69025906      -9.16036313       4.65102637
C        3.44883623      -9.23142229       3.95811473
C        2.38626203      -8.41851375       4.34866048
C        1.18672530      -8.45149424       3.63258221
C        1.06450566      -9.29047769       2.52522469
C        2.13016794     -10.09537190       2.12458935
C        3.32800284     -10.06256284       2.84148039
H        1.32387720      -2.28954457      -0.69475156
H        2.73907312      -3.70800464       0.71823493
H        2.02017440      -1.06031172       4.06254503
H        0.62713684       0.34468581       2.64217852
H        3.76648202      -4.09207563       2.71024378
H        4.80392277      -3.29800474       6.97220494
H        6.25915459      -4.98657244       7.97830454
H        7.18841062      -7.10637271       8.05883374
H        7.96755950      -7.43298616       6.51379991
H        6.53594596      -8.38181852       7.04337106
H        4.20871072      -5.84471037       3.54333811
H        5.14419349     -10.05271955       4.85461414
H        2.47409486      -7.76979316       5.21594476
H        0.35628110      -7.82327877       3.94574580
H        2.04291910     -10.74177966       1.25470415
H        4.16344075     -10.67370471       2.51070402
C       -0.17078767      -9.32401465       1.78595095
C       -1.20534583      -9.35210186       1.16680920
Br      -2.87813888      -9.39751649       0.16570935
