102
Properties=species:S:1:pos:R:3 pbc="F F F"
C        1.79331427       1.79331427      -1.79331427
C        1.49192753       3.15137715      -1.92179660
C        2.27911366       3.98722952      -2.72164746
C        3.36043944       3.39305698      -3.36909539
O        4.23737618       4.03760968      -4.18593899
C        5.13809506       3.11160526      -4.61366702
C        6.20658605       3.36545364      -5.47117788
C        7.02283380       2.27567693      -5.79377164
C        6.76132205       1.00676043      -5.27105587
Br       7.89293598      -0.43849707      -5.73511523
C        5.68001878       0.77612125      -4.41007082
C        4.84834432       1.86183885      -4.07498531
C        3.68976610       2.04525289      -3.26404526
C        2.88689694       1.21842236      -2.45476023
H        0.63768099       3.57580862      -1.39872367
H        2.06444794       5.04295204      -2.83607526
H        6.39015491       4.35819612      -5.86437737
H        7.86850311       2.43093583      -6.46065135
H        5.48374758      -0.21284485      -4.00826268
H        3.11427070       0.16220388      -2.34963904
C       -1.79331427      -1.79331427      -1.79331427
C       -1.65145382      -3.18175906      -1.73188839
C       -2.44331191      -4.01850968      -2.52616905
C       -3.36355214      -3.39367994      -3.36535973
O       -4.21813776      -4.03399109      -4.20879600
C       -4.94322679      -3.07456837      -4.84557218
C       -5.93339925      -3.31350785      -5.79631046
C       -6.56640715      -2.18884590      -6.33702933
C       -6.20807840      -0.90145510      -5.92960484
Br      -7.09197613       0.59098506      -6.68856308
C       -5.20855570      -0.68638519      -4.97126996
C       -4.56121498      -1.80719493      -4.41675857
C       -3.53164475      -2.01517927      -3.45224022
C       -2.72649527      -1.18788399      -2.64570027
H       -0.92013579      -3.62959372      -1.06248377
H       -2.35077031      -5.09749203      -2.49521290
H       -6.19475345      -4.32106749      -6.09690746
H       -7.34569963      -2.33147151      -7.08291914
H       -4.93610270       0.31711822      -4.66018094
H       -2.83047348      -0.10816630      -2.68747384
C       -1.79331427       1.79331427       1.79331427
C       -3.09924531       1.38729266       2.07856330
C       -3.93359365       2.17146001       2.88293698
C       -3.39212060       3.35856002       3.37191120
O       -4.04401828       4.25023901       4.16666757
C       -3.17549008       5.26631959       4.42155766
C       -3.45495085       6.38621775       5.20204896
C       -2.42509003       7.32272390       5.34446843
C       -1.18771755       7.12452480       4.72689600
Br       0.17660157       8.41859181       4.94756390
C       -0.93033734       5.98954905       3.94632446
C       -1.95577777       5.03689106       3.79249965
C       -2.09703476       3.79369856       3.10833092
C       -1.27086773       2.99216110       2.29705070
H       -3.48348165       0.45236964       1.67636200
H       -4.94941024       1.87669826       3.11736675
H       -4.42228148       6.51878194       5.67166498
H       -2.60206241       8.21197479       5.94605308
H        0.03380938       5.84309334       3.46988145
H       -0.25497810       3.30047974       2.07065578
C        1.79331427      -1.79331427       1.79331427
C        3.15695128      -1.50882738       1.89932261
C        3.99298483      -2.29656282       2.69844300
C        3.39322953      -3.36096260       3.36839968
O        4.03703346      -4.23562920       4.18826219
C        3.10495686      -5.11793820       4.64047229
C        3.35608330      -6.17817673       5.50895753
C        2.25993123      -6.97509541       5.85725573
C        0.98755683      -6.70309989       5.34848163
Br      -0.46636671      -7.80843982       5.84748103
C        0.75976271      -5.63042236       4.47602578
C        1.85189088      -4.81818374       4.11509386
C        2.03981401      -3.67327631       3.28597393
C        1.21283932      -2.86997008       2.47727013
H        3.58565982      -0.66754821       1.35900525
H        5.05297710      -2.09484226       2.79565588
H        4.35154984      -6.37000448       5.89117409
H        2.41288824      -7.81378580       6.53341624
H       -0.23192545      -5.42589832       4.08519254
H        0.15231253      -3.08428174       2.38951936
C       -0.00445707       0.01189536      -1.78238275
H       -0.66409135       0.67374010      -2.43557963
H        0.65740317      -0.63156657      -2.45157240
C       -0.90989263      -0.90692880      -0.91072765
C        0.90977584       0.90977584      -0.90977584
C       -0.00465871       1.77757030       0.00794375
H       -0.66225468       2.44313916      -0.64384735
H        0.64322798       2.43503045       0.67728295
C       -1.78241447       0.00034974      -0.00472694
H       -2.45427497      -0.65498947       0.64260836
H       -2.43311707       0.67328779      -0.65473579
C       -0.91132561       0.90220522       0.91563759
C       -0.01476271      -0.02253852       1.78660255
H       -0.67934791      -0.69751639       2.42135241
H        0.63392994       0.61504881       2.47327442
C        0.01484550      -1.77751727      -0.01636693
H        0.67870853      -2.42144646      -0.68295456
H       -0.62264859      -2.45592969       0.64226336
C        1.78714474       0.01002794       0.00389507
H        2.44202412       0.67113390       0.66197326
H        2.45385902      -0.65136977      -0.64189061
C        0.91606151      -0.90478549       0.90901405
