173
Properties=species:S:1:pos:R:3 pbc="F F F"
C        0.00000000       0.00000000       0.00000000
O        2.14629312       9.54189981      -4.61874517
C        2.81054698       8.62500640      -5.08802225
C        2.49098369       7.94947658      -6.40772179
C        3.14882872       6.58442759      -6.60833770
C        2.69361714       5.62940084      -5.53348859
O        1.54711348       5.20826480      -5.44001110
O        3.67398058       5.42849022      -4.61519233
C        3.22949956       4.82436101      -3.40130500
C        3.32199430       3.30914942      -3.44777236
O        4.10032357       2.73075124      -4.20681839
C        2.47043364       2.50308574      -2.52063701
C        2.55072513       1.10529119      -2.60593645
C        1.75909242       0.29534986      -1.78903929
C        0.88103844       0.88103844      -0.88103844
C        0.79951894       2.26775901      -0.77397865
C        1.59750457       3.07968275      -1.58739347
O        3.90500867       8.08798871      -4.50259927
C        4.27986931       8.60686511      -3.22719857
C        5.36814736       9.65392857      -3.37813516
O        5.81636063       9.98611578      -4.47441190
C        5.91610671      10.28363335      -2.14002383
C        6.83846861      11.32906459      -2.28501281
C        7.37299272      11.96265472      -1.16156895
C        6.99019776      11.54796542       0.11139754
Br       7.70080766      12.41234860       1.63362508
C        6.08346504      10.50113332       0.27070711
C        5.54499446       9.86700916      -0.85398013
H        2.79916859       8.62602258      -7.21102776
H        1.40130681       7.83253887      -6.45071426
H        4.24189662       6.66094773      -6.60505037
H        2.86663264       6.16027104      -7.57832791
H        2.22142744       5.17280795      -3.16183683
H        3.89589575       5.17361293      -2.60531621
H        3.22890965       0.63684771      -3.31903753
H        1.83136143      -0.78561518      -1.87702375
H        0.11312816       2.72748669      -0.06612438
H        1.50054357       4.15340772      -1.46746509
H        4.68284451       7.76154557      -2.66019174
H        3.42132106       9.01665098      -2.68475700
H        7.14232179      11.65988789      -3.27759010
H        8.08131647      12.77674605      -1.29375129
H        5.78789802      10.17406151       1.26516793
H        4.84321666       9.05516197      -0.68974995
O       -7.97709980      -1.11041356      -7.21942474
C       -7.65876263      -2.17090475      -6.69390825
C       -8.44993942      -2.82228432      -5.57595832
C       -7.68624942      -3.87822206      -4.77712252
C       -6.47886055      -3.25594967      -4.12169634
O       -6.54565012      -2.43244713      -3.21729213
O       -5.33791551      -3.61402117      -4.76572646
C       -4.20093844      -2.81680101      -4.43742611
C       -3.41479877      -3.39193295      -3.27218437
O       -3.46713484      -4.58780102      -2.98295735
C       -2.52726673      -2.48644117      -2.48044849
C       -1.83721288      -3.03524885      -1.38949105
C       -1.01599623      -2.23615201      -0.59133332
C       -0.88103844      -0.88103844      -0.88103844
C       -1.54845829      -0.32335016      -1.96944815
C       -2.36595528      -1.12502521      -2.77360030
O       -6.56919753      -2.89958642      -7.02681269
C       -5.71358225      -2.36454942      -8.03580133
C       -6.03851273      -2.97478376      -9.38691460
O       -6.93878407      -3.79906218      -9.53904206
C       -5.21590377      -2.56132816     -10.56253196
C       -5.58756937      -3.03766498     -11.82731165
C       -4.86197167      -2.67242242     -12.96282229
C       -3.75803914      -1.83335639     -12.83537010
Br      -2.78226819      -1.32580548     -14.37145750
C       -3.36938089      -1.36232717     -11.58218318
C       -4.09692670      -1.72526641     -10.44379064
H       -9.34290323      -3.27373531      -6.01958038
H       -8.76616844      -2.01935882      -4.89903267
H       -7.37919876      -4.71737052      -5.41132544
H       -8.32059274      -4.29674070      -3.98789814
H       -4.51171873      -1.78379400      -4.26055949
H       -3.54395030      -2.81707788      -5.31379671
H       -1.94235717      -4.09314186      -1.14929585
H       -0.49656976      -2.68015307       0.25395283
H       -1.44548678       0.73554100      -2.19679345
H       -2.86409336      -0.64703233      -3.61029070
H       -4.69504053      -2.65285353      -7.75668776
H       -5.76961020      -1.27181751      -8.08130132
H       -6.45056688      -3.69381135     -11.93542156
H       -5.16977824      -3.04559150     -13.93644406
H       -2.50424634      -0.71056881     -11.48197645
H       -3.76287169      -1.33978152      -9.48547537
O       -7.09548182       8.08537664       1.12607963
C       -6.59496851       7.73879909       2.18980804
C       -5.47510383       8.49793201       2.87514622
C       -4.70918793       7.70128256       3.93112352
C       -4.06416640       6.49348213       3.29885804
O       -3.14397306       6.55852245       2.49289387
O       -4.73473311       5.35819049       3.62473953
C       -4.41231750       4.22980319       2.81304487
C       -3.27181667       3.41262572       3.39447369
O       -3.00338058       3.43847083       4.59604179
C       -2.47972519       2.52714523       2.48728597
C       -1.41130183       1.80783379       3.04281716
C       -0.61353674       0.98664124       2.24330359
C       -0.88103844       0.88103844       0.88103844
C       -1.94715635       1.57783484       0.31626542
C       -2.75102664       2.39537154       1.11818261
O       -6.96029943       6.64266055       2.89263667
C       -7.97448661       5.81507253       2.32437385
C       -9.33042991       6.15349376       2.91628742
O       -9.48142344       7.04158459       3.75388027
C      -10.51280478       5.35975523       2.46720388
C      -11.77919047       5.74571373       2.92764181
C      -12.92062015       5.04737349       2.52922275
C      -12.79764435       3.95639586       1.67272543
Br     -14.34139244       3.01773529       1.12040344
C      -11.54324556       3.55356554       1.21708015
C      -10.39885864       4.25384207       1.61328305
H       -5.91088538       9.39061234       3.33472120
H       -4.77825705       8.81608012       2.09022276
H       -5.36381776       7.39089375       4.75318321
H       -3.91651778       8.31371407       4.37499973
H       -4.21130473       4.55563522       1.78913226
H       -5.30008220       3.58887073       2.78587196
H       -1.18844841       1.88980789       4.10653858
H        0.21422077       0.44420717       2.69278360
H       -2.15710735       1.49781815      -0.74818627
H       -3.56995457       2.91697242       0.63448940
H       -7.71877017       4.78668885       2.59912280
H       -7.99921427       5.89131663       1.23219814
H      -11.88380200       6.59873333       3.59726446
H      -13.89521005       5.36606046       2.89054330
H      -11.44665199       2.69847456       0.55166505
H       -9.43981386       3.90941069       1.23890403
O        1.27893105      -6.41149035       8.61651669
C        2.34376443      -6.05281216       8.12699904
C        3.19979466      -4.94268486       8.70570253
C        4.23614512      -4.36097029       7.74447860
C        3.54772327      -3.76814200       6.54064129
O        2.83882798      -2.77017454       6.58638686
O        3.69691530      -4.56778870       5.45295913
C        2.80941264      -4.26958000       4.37617292
C        3.40737985      -3.27128950       3.40024673
O        4.62488513      -3.12260541       3.29040266
C        2.49193921      -2.47618728       2.52602990
C        3.06746764      -1.53788461       1.65660052
C        2.26563712      -0.74206524       0.83577920
C        0.88103844      -0.88103844       0.88103844
C        0.29431882      -1.81817361       1.72876418
C        1.09761464      -2.62061281       2.54635334
O        2.89799405      -6.58399143       7.01361116
C        2.16072023      -7.60725443       6.34595832
C        2.65825834      -8.97918767       6.76276507
O        3.56300660      -9.13185514       7.58202657
C        2.02723231     -10.17791380       6.13461778
C        2.40732757     -11.44371028       6.60150815
C        1.83970982     -12.59827649       6.05923008
C        0.89349075     -12.48984773       5.04342715
Br       0.11303514     -14.04949411       4.31700193
C        0.51537986     -11.23793304       4.56057835
C        1.08126201     -10.08004059       5.10468115
H        3.70465033      -5.33949325       9.59207535
H        2.51674320      -4.14522581       9.02259093
H        4.96058779      -5.11959212       7.42771481
H        4.80869458      -3.56429232       8.23224468
H        1.84544478      -3.93895302       4.77167442
H        2.63833471      -5.20456119       3.83192899
H        4.14984436      -1.41556338       1.61938715
H        2.73191514      -0.01567495       0.17517991
H       -0.78741914      -1.92745991       1.76669845
H        0.59615893      -3.33673201       3.18852544
H        2.35370504      -7.47427543       5.27660136
H        1.08383041      -7.51610168       6.52279694
H        3.14633753     -11.53686479       7.39659747
H        2.14129334     -13.57114764       6.43937282
H       -0.22039256     -11.15332999       3.76385417
H        0.76276858      -9.12360236       4.70175764
