181
Properties=species:S:1:pos:R:3 pbc="F F F"
C        0.00000000       0.00000000       0.00000000
O        2.14629312       9.54189981      -4.61874517
C        2.81054698       8.62500640      -5.08802225
C        2.49098369       7.94947658      -6.40772179
C        3.14882872       6.58442759      -6.60833770
C        2.69361714       5.62940084      -5.53348859
O        1.54711348       5.20826480      -5.44001110
O        3.67398058       5.42849022      -4.61519233
C        3.22949956       4.82436101      -3.40130500
C        3.32199430       3.30914942      -3.44777236
O        4.10032357       2.73075124      -4.20681839
C        2.47043364       2.50308574      -2.52063701
C        2.55072513       1.10529119      -2.60593645
C        1.75909242       0.29534986      -1.78903929
C        0.88103844       0.88103844      -0.88103844
C        0.79951894       2.26775901      -0.77397865
C        1.59750457       3.07968275      -1.58739347
O        3.90500867       8.08798871      -4.50259927
C        4.27986931       8.60686511      -3.22719857
C        5.36814736       9.65392857      -3.37813516
O        5.81636063       9.98611578      -4.47441190
C        5.91610671      10.28363335      -2.14002383
C        6.83846861      11.32906459      -2.28501281
C        7.37299272      11.96265472      -1.16156895
C        6.99019776      11.54796542       0.11139754
C        6.08346504      10.50113332       0.27070711
C        5.54499446       9.86700916      -0.85398013
H        2.79916859       8.62602258      -7.21102776
H        1.40130681       7.83253887      -6.45071426
H        4.24189662       6.66094773      -6.60505037
H        2.86663264       6.16027104      -7.57832791
H        2.22142744       5.17280795      -3.16183683
H        3.89589575       5.17361293      -2.60531621
H        3.22890965       0.63684771      -3.31903753
H        1.83136143      -0.78561518      -1.87702375
H        0.11312816       2.72748669      -0.06612438
H        1.50054357       4.15340772      -1.46746509
H        4.68284451       7.76154557      -2.66019174
H        3.42132106       9.01665098      -2.68475700
H        7.14232179      11.65988789      -3.27759010
H        8.08131647      12.77674605      -1.29375129
H        5.78789802      10.17406151       1.26516793
H        4.84321666       9.05516197      -0.68974995
C        7.53182704      12.20680122       1.27164455
C        7.98544157      12.75857620       2.24335142
Br       8.71889789      13.65074967       3.81451923
O       -8.42080462      -1.20612209      -6.68001139
C       -7.98491352      -2.27375333      -6.26490877
C       -8.63514255      -3.06599577      -5.14704374
C       -7.73518839      -4.11387787      -4.49252774
C       -6.52859313      -3.44769632      -3.88021711
O       -6.58377247      -2.70063948      -2.91097743
O       -5.41905616      -3.66606901      -4.63253796
C       -4.32120304      -2.80754204      -4.32642048
C       -3.40518106      -3.40252819      -3.27120683
O       -3.34658042      -4.61676923      -3.07454355
C       -2.52655353      -2.49011416      -2.47748871
C       -1.71387021      -3.06109068      -1.48699189
C       -0.89285721      -2.26017306      -0.69045130
C       -0.88103844      -0.88103844      -0.88103844
C       -1.67166970      -0.29962749      -1.86995942
C       -2.48927041      -1.10237393      -2.67293645
O       -6.87462862      -2.88746260      -6.73350542
C       -6.14317352      -2.21377227      -7.75698720
C       -6.52844887      -2.74706265      -9.12469957
O       -7.37504180      -3.62666601      -9.27518050
C       -5.83408547      -2.18463409     -10.32104433
C       -6.26880739      -2.59484394     -11.58889467
C       -5.66417516      -2.09097202     -12.74206921
C       -4.61815027      -1.17872743     -12.62988793
C       -4.16706380      -0.77159795     -11.37522949
C       -4.77357348      -1.27354571     -10.21886457
H       -9.52490614      -3.55298886      -5.55832393
H       -8.95481048      -2.34246440      -4.38728505
H       -7.41860438      -4.87728141      -5.21200893
H       -8.27261727      -4.63808500      -3.69452931
H       -4.69193658      -1.81815987      -4.04597576
H       -3.73744248      -2.69149682      -5.24588558
H       -1.72177380      -4.13874860      -1.32427248
H       -0.27694948      -2.72244767       0.07662715
H       -1.66498170       0.77790805      -2.01966558
H       -3.08582687      -0.60525066      -3.43033885
H       -5.08732949      -2.44019776      -7.57705457
H       -6.28263609      -1.12852593      -7.71156701
H       -7.08719162      -3.30757467     -11.68503350
H       -6.01991952      -2.41491758     -13.71697670
H       -3.34685906      -0.06248059     -11.28745195
H       -4.39384978      -0.93415460      -9.26012420
C       -3.99986714      -0.64934131     -13.81777526
C       -3.48205501      -0.20598044     -14.81263090
Br      -2.64479660       0.51089660     -16.42122832
O       -6.39457964       8.62831479       1.28404367
C       -6.03948550       8.13552239       2.34856774
C       -4.93000675       8.70969288       3.20848243
C       -4.35289710       7.74474786       4.24394905
C       -3.76125426       6.54113375       3.55411856
O       -2.76155193       6.58620864       2.84762881
O       -4.56374350       5.45495827       3.69896136
C       -4.26596721       4.37953214       2.80966622
C       -3.27130663       3.39993291       3.40767654
O       -3.12568397       3.28694509       4.62526414
C       -2.47610892       2.52599339       2.49205408
C       -1.54113907       1.65308038       3.06773332
C       -0.74536337       0.83227303       2.26584516
C       -0.88103844       0.88103844       0.88103844
C       -1.81486493       1.73227098       0.29412070
C       -2.61727124       2.54985809       1.09745146
O       -6.57450201       7.02209021       2.89900443
C       -7.59759548       6.35849726       2.15784025
C       -8.96970983       6.77732102       2.65318023
O       -9.12257799       7.59484848       3.55946184
C      -10.16841963       6.15339361       2.01795065
C      -11.43401169       6.62232618       2.39620813
C      -12.58851046       6.08401979       1.82468614
C      -12.48023736       5.07014940       0.87637888
C      -11.22856830       4.58528592       0.50003702
C      -10.07073512       5.12541337       1.06983527
H       -5.32593785       9.59581448       3.71446659
H       -4.13024749       9.02631211       2.52800034
H       -5.11391452       7.42806842       4.96591178
H       -3.55642148       8.22935659       4.81945351
H       -3.93220878       4.77648708       1.84737636
H       -5.20180116       3.83784105       2.63518267
H       -1.42140036       1.61309460       4.15029992
H       -0.02157231       0.16892910       2.73226859
H       -1.92156859       1.77294613      -0.78777549
H       -3.33075255       3.19483217       0.59583167
H       -7.46752279       5.28839523       2.34866379
H       -7.50355271       6.53760260       1.08157372
H      -11.52704059       7.41592569       3.13683350
H      -13.56119728       6.46571028       2.12490624
H      -11.14410205       3.79006384      -0.23737429
H       -9.11449455       4.72101903       0.75261500
C      -13.66890091       4.52057894       0.27750386
C      -14.66440663       4.06031368      -0.22405396
Br     -16.27405519       3.31610368      -1.03503054
O        1.24267813      -6.53789160       8.52636837
C        2.30932821      -6.15253781       8.06170961
C        3.13582976      -5.03816279       8.67418950
C        4.17820016      -4.42210290       7.74129094
C        3.50027759      -3.82025947       6.53596952
O        2.77341007      -2.83553603       6.58644329
O        3.68200667      -4.59814610       5.43751036
C        2.80802240      -4.29646101       4.35068216
C        3.40512927      -3.27120580       3.40258101
O        4.62156064      -3.09978689       3.31654567
C        2.49108037      -2.47678638       2.52628965
C        3.06497608      -1.51374245       1.68323425
C        2.26357581      -0.71759017       0.86231559
C        0.88103844      -0.88103844       0.88103844
C        0.29630645      -1.84272859       1.70222157
C        1.09934240      -2.64541726       2.51982114
O        2.89173344      -6.65464804       6.94921516
C        2.18396258      -7.67859875       6.25137167
C        2.69812977      -9.04886305       6.65321827
O        3.59123000      -9.20026478       7.48539353
C        2.09895724     -10.24709250       5.99371415
C        2.49300786     -11.51413758       6.44540056
C        1.95498318     -12.66863088       5.87360232
C        1.02456394     -12.55873849       4.84346321
C        0.63301262     -11.30525878       4.37561984
C        1.16921294     -10.14750180       4.94926902
H        3.63226361      -5.44165545       9.56229986
H        2.43364784      -4.25817250       8.99273960
H        4.92108164      -5.16256045       7.42425263
H        4.72832922      -3.62435592       8.25254644
H        1.83180036      -3.98934790       4.73492395
H        2.66262413      -5.22460524       3.78759552
H        4.14553427      -1.37226054       1.66700008
H        2.72836992       0.02809145       0.22249153
H       -0.78385279      -1.97118109       1.71941094
H        0.59951780      -3.38111240       3.14078619
H        2.39289641      -7.52370747       5.18797794
H        1.10277487      -7.60901089       6.41094327
H        3.21979591     -11.60846290       7.25154097
H        2.26692477     -13.64267112       6.24221791
H       -0.09036176     -11.21939839       3.56775498
H        0.84104340      -9.18978215       4.55730302
C        0.46009103     -13.74769120       4.25920148
C       -0.01265504     -14.74343910       3.76988228
Br      -0.77704544     -16.35347924       2.97869453
