189
Properties=species:S:1:pos:R:3 pbc="F F F"
C        0.00000000       0.00000000       0.00000000
C        0.88071383       0.88071383      -0.88071383
C        0.63031616       0.97196457      -2.24464259
C        1.43466405       1.78912431      -3.04998014
C        2.51007501       2.51691830      -2.52090119
C        2.73731222       2.39051054      -1.13608856
C        1.93194106       1.59268181      -0.32056910
N        3.32898873       3.33403393      -3.30591599
C        3.81901707       4.58605329      -2.94035069
C        3.16098804       5.45945868      -1.90648986
C        3.35113922       6.96654378      -2.09570544
C        4.78663845       7.42104274      -1.84713405
C        5.73263720       7.17060997      -3.01790425
C        5.90568779       5.70830176      -3.43120745
N        4.67981864       5.11949265      -3.97108959
C        4.94458025       3.95500663      -4.85838192
C        3.66594632       3.06106438      -4.71396268
O        2.63790373       3.63647952      -5.52774535
C        3.92056549       1.60955296      -5.11666573
C        3.08253096       0.96863191      -6.05352619
C        3.32818077      -0.33803541      -6.48404086
C        4.43212420      -1.02548038      -5.99449961
C        5.27330437      -0.42792298      -5.06005474
C        5.00905314       0.87221706      -4.61048679
H       -0.18984950       0.42131329      -2.69764753
H        1.18428471       1.86554061      -4.10326462
H        3.57724098       2.90674859      -0.67708585
H        2.14192339       1.53213883       0.74643205
H        2.07974502       5.27114678      -1.92547397
H        3.51637490       5.18184463      -0.90893980
H        3.01303534       7.28279224      -3.09069192
H        2.70206346       7.47778704      -1.37349514
H        4.77500426       8.50128171      -1.65473577
H        5.18040081       6.95004748      -0.93841847
H        5.40138160       7.75687366      -3.88439766
H        6.71967457       7.56508715      -2.74404989
H        6.67952003       5.69924676      -4.21038002
H        6.30845513       5.11878404      -2.59576712
H        5.09763509       4.29022266      -5.88988779
H        5.84602106       3.42974576      -4.52081617
H        2.49137545       4.49405708      -5.09037664
H        2.22102984       1.49445089      -6.46559761
H        2.65959635      -0.79793269      -7.20722290
H        6.13792367      -0.96425066      -4.67442989
H        5.66812570       1.30558807      -3.86257964
C        4.70754543      -2.35915116      -6.46254383
C        4.93821072      -3.47610044      -6.85453086
Br       5.31117697      -5.28211296      -7.48834074
C       -0.88071383      -0.88071383      -0.88071383
C       -2.15864817      -1.22854330      -0.45973185
C       -2.96936782      -2.02964464      -1.27475604
C       -2.52228759      -2.51278175      -2.51282516
C       -1.21796677      -2.14621320      -2.89973135
C       -0.40716682      -1.33430303      -2.10372212
N       -3.31142663      -3.31759201      -3.33992001
C       -3.39813779      -3.22016890      -4.72711435
C       -3.07903434      -1.96097613      -5.48692612
C       -3.83631665      -1.77313911      -6.80393267
C       -3.40809805      -2.76364559      -7.88307161
C       -4.03041576      -4.14961252      -7.74112313
C       -3.70374023      -4.89515463      -6.44630214
N       -4.26313843      -4.24811609      -5.25914637
C       -4.44408440      -5.19113257      -4.12275183
C       -4.30162759      -4.29133509      -2.84801071
O       -5.54069251      -3.59784950      -2.66358659
C       -3.94715324      -5.09898908      -1.60064186
C       -4.71247995      -4.96986768      -0.42234144
C       -4.44683346      -5.74031359       0.71296083
C       -3.41506972      -6.67068013       0.68460641
C       -2.63220685      -6.81596725      -0.45726203
C       -2.88407238      -6.02326322      -1.58442140
H       -2.54386061      -0.88016228       0.49491157
H       -3.97515509      -2.24777682      -0.93015802
H       -0.80711628      -2.51878105      -3.83517809
H        0.59192669      -1.07114626      -2.44841060
H       -3.32407308      -1.09819244      -4.85410026
H       -2.00405142      -1.91439594      -5.68871197
H       -4.92081242      -1.82232162      -6.64338545
H       -3.62506794      -0.75984302      -7.16843469
H       -3.71270043      -2.36099996      -8.85732136
H       -2.31471064      -2.84364961      -7.91050652
H       -5.11947191      -4.07182306      -7.85135795
H       -3.68326471      -4.76278264      -8.58276426
H       -4.14451857      -5.89575542      -6.54887282
H       -2.61934202      -5.04844440      -6.35521988
H       -5.42717838      -5.67079358      -4.17977358
H       -3.67033283      -5.96730505      -4.15894511
H       -5.57838475      -3.03800325      -3.45942116
H       -5.53875767      -4.25983286      -0.38248781
H       -5.05884950      -5.61209868       1.60206162
H       -1.82312723      -7.54308771      -0.48188796
H       -2.24219260      -6.14028379      -2.45381701
C       -3.16134711      -7.49052139       1.84093040
C       -2.94885443      -8.17713844       2.80935173
Br      -2.60527173      -9.28734015       4.37520712
C       -0.88071383       0.88071383       0.88071383
C       -2.21527470       1.08214490       0.54950371
C       -3.02476962       1.88370734       1.36529154
C       -2.52221242       2.51199893       2.51368315
C       -1.16259198       2.29107690       2.81024245
C       -0.35046764       1.48051060       2.01421373
N       -3.30962510       3.32011837       3.33919519
C       -3.27207663       3.34150755       4.73183686
C       -2.77879325       2.18681301       5.56133033
C       -3.40441187       2.05663228       6.95234429
C       -2.97954039       3.17256134       7.90271351
C       -3.73406489       4.48376951       7.70331701
C       -3.58433191       5.13382033       6.32704476
N       -4.17934824       4.33816272       5.25288993
C       -4.53813318       5.15649305       4.06334257
C       -4.42100564       4.16015974       2.85980801
O       -5.60338678       3.35269340       2.84604842
C       -4.24536415       4.87844014       1.52297989
C       -5.09079027       4.58055594       0.43334286
C       -4.99067302       5.26467560      -0.78116240
C       -4.04833802       6.27598997      -0.92318455
C       -3.18998272       6.58807994       0.12737348
C       -3.27508693       5.88227507       1.33439499
H       -2.64514014       0.61830678      -0.33433560
H       -4.07119990       1.98583875       1.09605129
H       -0.71105427       2.77930829       3.67071286
H        0.69339222       1.33314779       2.28787461
H       -2.99645803       1.25310512       5.02680262
H       -1.69099820       2.24777368       5.66838746
H       -4.49847004       2.00119061       6.88685884
H       -3.07309158       1.10136227       7.37889180
H       -3.16485973       2.83570627       8.93045574
H       -1.89933923       3.34493345       7.82459408
H       -4.79877325       4.32638450       7.91749517
H       -3.37523565       5.19704937       8.45652658
H       -4.10365032       6.09966765       6.38582884
H       -2.52947849       5.36748100       6.12604681
H       -5.55241579       5.55632607       4.16900369
H       -3.83729599       5.99412804       3.96515895
H       -5.52437787       2.86580218       3.68562911
H       -5.85003287       3.80388281       0.52716266
H       -5.66008935       5.00649268      -1.59769548
H       -2.45061175       7.37891170       0.01857944
H       -2.57665183       6.13004033       2.12960123
C       -3.96625482       7.00624804      -2.16156475
C       -3.89751013       7.61783917      -3.19870816
Br      -3.78635580       8.60673030      -4.87568134
C        0.88071383      -0.88071383       0.88071383
C        0.50267383      -1.15455801       2.18969147
C        1.30840125      -1.97167689       2.99369037
C        2.50974556      -2.51808764       2.52006131
C        2.86300167      -2.20949524       1.19141442
C        2.05955382      -1.41040116       0.37523700
N        3.33196150      -3.33130384       3.30567332
C        3.99872858      -4.47511395       2.87157852
C        3.55676410      -5.28647668       1.68369581
C        3.89934744      -6.77748574       1.73655525
C        5.39575444      -7.04907579       1.60998501
C        6.18008202      -6.83915000       2.90191940
C        6.13908581      -5.42446153       3.48164966
N        4.80406592      -5.03217994       3.93415502
C        4.83903787      -3.95703428       4.96189665
C        3.48745581      -3.18962703       4.76389055
O        2.45417236      -3.95865193       5.38930432
C        3.52938572      -1.77593190       5.34146657
C        2.53036315      -1.33793041       6.23639550
C        2.57730731      -0.07146902       6.82540990
C        3.63903739       0.77858046       6.54068650
C        4.63590128       0.38346314       5.65299800
C        4.57179916      -0.87627231       5.04368553
H       -0.41815178      -0.74791187       2.59935124
H        0.96083036      -2.19493106       3.99732851
H        3.79999110      -2.57940516       0.78167915
H        2.37047398      -1.20542425      -0.64826806
H        2.46488252      -5.21460590       1.59687736
H        3.97902465      -4.86003785       0.76809684
H        3.49889479      -7.24000435       2.64762036
H        3.39206369      -7.26620037       0.89508159
H        5.52913979      -8.09516607       1.30671589
H        5.82435722      -6.43790261       0.80660693
H        5.83093376      -7.55283744       3.65888172
H        7.22913981      -7.09495931       2.70471248
H        6.82180521      -5.42551676       4.34182484
H        6.55528681      -4.70374656       2.76397293
H        4.92220116      -4.39165572       5.96388866
H        5.70374427      -3.30575105       4.78708768
H        2.45390952      -4.77041198       4.85148767
H        1.69746174      -1.99424765       6.48936895
H        1.78874627       0.22996712       7.51010740
H        5.46792894       1.04742536       5.42759931
H        5.35045551      -1.14962868       4.33620921
C        3.70838223       2.07045951       7.17301538
C        3.76645853       3.15240821       7.70259082
Br       3.86036300       4.90182776       8.55886951
