190
Properties=species:S:1:pos:R:3 pbc="F F F"
C        1.79278126       1.79278126      -1.79278126
C        3.14183899       1.48801012      -1.95178458
C        3.94286581       2.30749609      -2.75193788
C        3.40260058       3.41987614      -3.40469097
C        2.04597592       3.71052368      -3.24012123
C        1.24050971       2.90209370      -2.43043161
N        4.27246170       4.19409665      -4.17781248
C        4.01372381       5.25375030      -5.01220599
O        2.89466453       5.71796938      -5.26404379
C        5.28898143       5.89908387      -5.59754156
N        6.46989507       5.01807162      -5.67144598
N        6.93227736       4.54537855      -4.38727926
N        7.07591909       3.11526476      -4.48275712
C        6.68857262       2.68029658      -5.82071927
H        5.82736816       2.00219901      -5.79138699
C        6.34928791       3.91169518      -6.61820569
H        5.36787140       3.82183646      -7.09836098
C        7.41255628       3.98621987      -7.70015768
O        7.38276815       4.82292131      -8.60845218
N        8.26372390       2.89832146      -7.58243927
C        9.34920139       2.59667121      -8.47719921
C        9.65288192       3.39957458      -9.59120309
C       10.67233045       3.06594220     -10.49761736
C       11.42936504       1.92099506     -10.29675847
C       11.19481022       1.12782631      -9.18340755
C       10.17561712       1.47373845      -8.28293190
C        7.78489641       2.02323482      -6.61796887
O        8.06566431       0.82675795      -6.50253594
H        3.59155695       0.62800264      -1.46674514
H        5.00332060       2.08130273      -2.88206575
H        1.60531345       4.57712070      -3.72076848
H        0.19307283       3.15589300      -2.30690336
H        5.31377173       3.96866229      -4.18445583
H        5.51774340       6.78058526      -4.98678504
H        5.04873088       6.25930801      -6.60589819
H        9.10265383       4.31072409      -9.79975653
H       10.84982431       3.71381267     -11.35074529
H       11.78637580       0.23774480      -8.99135442
H       10.05616300       0.83593773      -7.41110921
C       12.45809638       1.56076752     -11.23779404
C       13.31965888       1.25907695     -12.02591133
Br      14.71273257       0.77126882     -13.30023033
C       -1.79278126      -1.79278126      -1.79278126
C       -3.16115807      -1.54892705      -1.87154856
C       -3.96125792      -2.36841033      -2.67263152
C       -3.40187917      -3.41973451      -3.40555402
C       -2.02634962      -3.64938521      -3.32088600
C       -1.22081297      -2.84116442      -2.51105764
N       -4.27145460      -4.19881347      -4.17410277
C       -4.00457449      -5.20299524      -5.07211037
O       -2.87865845      -5.59781596      -5.40020330
C       -5.27529932      -5.88285232      -5.62745523
N       -6.49922818      -5.05976755      -5.60041693
N       -6.91858126      -4.67288189      -4.27347203
N       -7.13509056      -3.24886453      -4.28998588
C       -6.83671780      -2.73147309      -5.62139758
H       -6.00855456      -2.01313788      -5.59926172
C       -6.47941422      -3.90470416      -6.49507041
H       -5.52878889      -3.74277609      -7.01650387
C       -7.59092248      -3.98071763      -7.52729372
O       -7.56681985      -4.77045361      -8.47686818
N       -8.48616836      -2.94384288      -7.31447338
C       -9.62842202      -2.65465905      -8.13999074
C       -9.94893811      -3.41759393      -9.27712755
C      -11.02743756      -3.09262959     -10.11582286
C      -11.82732867      -1.99809089      -9.82169902
C      -11.57533883      -1.24830945      -8.68239580
C      -10.49680515      -1.58525270      -7.85022962
C       -8.00189453      -2.09294407      -6.33126151
O       -8.33342438      -0.91898100      -6.14255282
H       -3.62656185      -0.73679402      -1.32294886
H       -5.03651715      -2.18982385      -2.74034808
H       -1.56944357      -4.46875706      -3.86500201
H       -0.15755125      -3.04762873      -2.45068921
H       -5.32137388      -4.02592959      -4.11958637
H       -5.43064932      -6.80294299      -5.05152139
H       -5.06906392      -6.18189666      -6.66297649
H       -9.36692658      -4.28892216      -9.55728572
H      -11.21637893      -3.70704455     -10.99095879
H      -12.19840949      -0.39928626      -8.41777927
H      -10.36434253      -0.98469402      -6.95417338
C      -12.91810055      -1.64540566     -10.69315173
C      -13.83162200      -1.35003178     -11.42299338
Br     -15.30870893      -0.87243720     -12.60308559
C       -1.79278126       1.79278126       1.79278126
C       -1.21085630       2.63065502       2.74012236
C       -2.02698925       3.42549750       3.54981304
C       -3.41806230       3.39925513       3.40985025
C       -3.98782435       2.55743075       2.45136573
C       -3.17794561       1.74929243       1.64579699
N       -4.16354134       4.21610532       4.26472417
C       -5.50991441       4.48619425       4.28357144
O       -6.34493415       4.05104169       3.48070186
C       -5.94192049       5.36798952       5.47569686
N       -4.88690633       6.22797311       6.04453322
N       -3.76857359       5.49953417       6.59682741
N       -2.56847959       6.06742562       6.03803576
C       -2.92680493       7.14323392       5.11954963
H       -2.59820978       6.92665360       4.09609078
C       -4.42440455       7.29493181       5.15985242
H       -4.85737985       7.27783313       4.15285586
C       -4.66573169       8.66585148       5.76735066
O       -5.79089446       9.16810297       5.85514421
N       -3.44706036       9.27582084       6.02160343
C       -3.28063550      10.61070876       6.53172756
C       -4.37261939      11.44757092       6.82346928
C       -4.20413696      12.77162291       7.26013014
C       -2.92748562      13.28574157       7.43389138
C       -1.82356359      12.47803177       7.20444872
C       -2.00498873      11.15545796       6.77184078
C       -2.41426177       8.50610859       5.50572975
O       -1.27386491       8.89031076       5.23078253
H       -0.13486220       2.68200610       2.86943642
H       -1.58313222       4.08449227       4.29906459
H       -5.06467899       2.50456855       2.33395509
H       -3.64415033       1.09361723       0.91810163
H       -3.66974264       4.76244275       5.03470445
H       -6.33662148       4.69889426       6.24959796
H       -6.77460037       5.99913885       5.14019786
H       -5.39534082      11.10312669       6.71466694
H       -5.08437144      13.37769019       7.45232064
H       -0.81384489      12.84893788       7.35269224
H       -1.10756053      10.55714554       6.63850386
C       -2.74969059      14.65095241       7.85601495
C       -2.60078725      15.79431648       8.20954344
Br      -2.36002314      17.64303948       8.78116910
C        1.79278126      -1.79278126       1.79278126
C        1.30449975      -2.27182557       3.00530836
C        2.12315383      -3.06890843       3.81023752
C        3.41968921      -3.40171435       3.40576413
C        3.89448649      -2.91813433       2.18400001
C        3.08530228      -2.10909234       1.37864041
N        4.17761714      -4.19433319       4.27242050
C        5.41294941      -4.76847879       4.09825190
O        6.09997210      -4.70572021       3.07098539
C        5.94024002      -5.48410065       5.36126620
N        4.90707572      -5.94366912       6.30866782
N        4.11217986      -4.87850418       6.87425114
N        2.72803920      -5.24010219       6.70579958
C        2.64577813      -6.52492236       6.01888798
H        2.13043844      -6.43534486       5.05517085
C        4.05279303      -7.01822573       5.80817003
H        4.22869982      -7.29679010       4.76257893
C        4.16615899      -8.26563856       6.66713628
O        5.16300881      -8.99510586       6.65602697
N        2.94985610      -8.50804707       7.28658144
C        2.65856210      -9.64262300       8.12188671
C        3.60863638     -10.64403335       8.39098986
C        3.29995856     -11.78179024       9.15414120
C        2.02752920     -11.93443802       9.68515135
C        1.07536331     -10.94608577       9.48459500
C        1.39705101      -9.81204584       8.72319062
C        1.99000690      -7.62736451       6.80872870
O        0.76527371      -7.77417061       6.85551389
H        0.30072822      -2.03996541       3.34561110
H        1.75327998      -3.44818126       4.76522785
H        4.90219898      -3.14649319       1.85451047
H        3.48095926      -1.73419559       0.44071433
H        3.78656867      -4.45047507       5.22984611
H        6.62780635      -4.79342628       5.86388108
H        6.53321702      -6.34731969       5.03340037
H        4.62237270     -10.58016420       8.01059755
H        4.06861926     -12.53194447       9.31381854
H        0.07836010     -11.03074100       9.90637391
H        0.62454820      -9.05397587       8.62468587
C        1.69868290     -13.11194625      10.44602879
C        1.42327412     -14.09810940      11.08326365
Br       0.97796142     -15.69265179      12.11361851
C       -0.00445707       0.01189536      -1.78238275
H       -0.66409135       0.67374010      -2.43557963
H        0.65740317      -0.63156657      -2.45157240
C       -0.90989263      -0.90692880      -0.91072765
C        0.90977584       0.90977584      -0.90977584
C       -0.00465871       1.77757030       0.00794375
H       -0.66225468       2.44313916      -0.64384735
H        0.64322798       2.43503045       0.67728295
C       -1.78241447       0.00034974      -0.00472694
H       -2.45427497      -0.65498947       0.64260836
H       -2.43311707       0.67328779      -0.65473579
C       -0.91132561       0.90220522       0.91563759
C       -0.01476271      -0.02253852       1.78660255
H       -0.67934791      -0.69751639       2.42135241
H        0.63392994       0.61504881       2.47327442
C        0.01484550      -1.77751727      -0.01636693
H        0.67870853      -2.42144646      -0.68295456
H       -0.62264859      -2.45592969       0.64226336
C        1.78714474       0.01002794       0.00389507
H        2.44202412       0.67113390       0.66197326
H        2.45385902      -0.65136977      -0.64189061
C        0.91606151      -0.90478549       0.90901405
