193
Properties=species:S:1:pos:R:3 pbc="F F F"
C        0.00000000       0.00000000       0.00000000
C        0.88175139       0.88175139      -0.88175139
C        0.44624246       1.23544002      -2.15738738
C        1.24304414       2.04777751      -2.96183473
C        2.47033900       2.50949028      -2.48404052
C        2.91869802       2.15601303      -1.20107821
C        2.11330456       1.32964191      -0.40438819
C        4.20547492       2.61979310      -0.69894309
N        4.99528440       2.07333226       0.20860436
C        6.06895299       2.92771249       0.25928652
C        7.25914611       2.87822586       0.99839128
C        8.20553314       3.91546460       0.83907372
C        7.91379978       5.00043404      -0.01352700
C        6.73497025       5.05669612      -0.76814872
C        5.86143322       3.99325349      -0.59886825
O        4.66881068       3.79849848      -1.22742812
C        9.49222198       3.86664662       1.64419769
C       10.73032971       4.38967441       0.93852906
C       11.15162168       3.82063170      -0.28124202
C       12.28902961       4.27858344      -0.95973852
C       12.98005536       5.31273781      -0.34421476
O       14.11394836       5.92626831      -0.78596097
C       14.38824370       6.85882044       0.18452607
N       13.51952661       6.88353225       1.18134875
C       12.61991818       5.89985025       0.85547700
C       11.47490948       5.43857915       1.51962350
C       15.58807113       7.67034753      -0.01141443
C       15.93932690       8.63353118       0.94818693
C       17.08619719       9.41735272       0.79310633
C       17.89864815       9.24791369      -0.32611707
C       17.55831857       8.29630913      -1.28460119
Br      18.65985740       8.06309454      -2.80407512
C       16.41389185       7.51112987      -1.13466136
H       -0.51032208       0.88422863      -2.53483710
H        0.91050083       2.32121973      -3.96024191
H        3.08290960       3.13837110      -3.12703777
H        2.44968818       1.04631866       0.59127031
H        7.43496921       2.04397407       1.66965230
H        8.62288537       5.82220054      -0.11210056
H        6.51672713       5.87580316      -1.44170908
H        9.70653457       2.83071847       1.93925073
H        9.32128933       4.42522694       2.57319328
H       10.57704705       3.00681188      -0.72376346
H       12.61413618       3.85339235      -1.90079603
H       11.18422249       5.89124717       2.46180145
H       15.31454855       8.77524958       1.82963073
H       17.34407754      10.15708015       1.54709376
H       18.79038209       9.85864145      -0.44121651
H       16.16762792       6.77252541      -1.89416530
C       -0.88175139      -0.88175139      -0.88175139
C       -2.18325218      -1.17598101      -0.47983666
C       -2.99474166      -1.97212980      -1.28578492
C       -2.50318363      -2.46548339      -2.49520279
C       -1.19212912      -2.17658553      -2.90707461
C       -0.38115655      -1.38304770      -2.08313041
C       -0.66414627      -2.69978535      -4.16027949
N        0.58825185      -2.94608033      -4.50218381
C        0.48332171      -3.44273309      -5.77796757
C        1.45337655      -3.92416330      -6.66819395
C        1.04419239      -4.38699920      -7.93911722
C       -0.31532625      -4.30664647      -8.30578811
C       -1.29720978      -3.84047045      -7.42213486
C       -0.84170984      -3.43500002      -6.17684510
O       -1.58887858      -2.96758243      -5.13827627
C        2.09476183      -4.90242059      -8.90701215
C        1.66793529      -6.06646116      -9.78294918
C        1.21967409      -7.27099469      -9.20217480
C        0.81792084      -8.36513434      -9.98013807
C        0.90774410      -8.19078842     -11.35396362
O        0.59246685      -9.09505058     -12.32359392
C        0.87099856      -8.43690951     -13.49662713
N        1.32039188      -7.20316989     -13.33893210
C        1.35047007      -7.03775912     -11.97700238
C        1.74091121      -5.94728375     -11.18749259
C        0.64714727      -9.18427420     -14.73270617
C        0.92493624      -8.58008162     -15.96952577
C        0.73041596      -9.27323771     -17.16762183
C        0.25446788     -10.58258444     -17.14456235
C       -0.02560198     -11.19054435     -15.92308256
Br      -0.67039553     -12.96807828     -15.88855326
C        0.16664665     -10.50262616     -14.72370356
H       -2.57515178      -0.79155171       0.45795985
H       -4.00873212      -2.20974861      -0.97348174
H       -3.14795414      -3.09028776      -3.11007657
H        0.63772518      -1.15311090      -2.38935082
H        2.49467814      -3.94057483      -6.36339429
H       -0.63206008      -4.62689783      -9.29822855
H       -2.34532222      -3.79854293      -7.69037422
H        2.98310217      -5.23036384      -8.35074064
H        2.41281759      -4.05654921      -9.52959137
H        1.17031711      -7.36099625      -8.11694323
H        0.46413642      -9.28998893      -9.54247205
H        2.09090366      -5.03861324     -11.66595864
H        1.29990503      -7.55749601     -16.00257642
H        0.95262896      -8.79050188     -18.11619101
H        0.10659052     -11.11796107     -18.07886950
H       -0.05656113     -10.99687970     -13.78087780
C       -0.88175139       0.88175139       0.88175139
C       -0.42081146       1.28460763       2.13365077
C       -1.21784915       2.09715490       2.93765233
C       -2.47109124       2.50985692       2.48292165
C       -2.94508409       2.10663506       1.22407012
C       -2.13883366       1.28053462       0.42796638
C       -4.25850796       2.51901128       0.74669187
N       -5.05743095       1.92423521      -0.12165387
C       -6.15652266       2.74606194      -0.16520564
C       -7.36520295       2.64142775      -0.86765000
C       -8.33650093       3.65567692      -0.71025382
C       -8.05247601       4.77282759       0.10245723
C       -6.85490824       4.88436193       0.82054492
C       -5.95591915       3.84157951       0.65605629
O       -4.74082789       3.69902373       1.25488566
C       -9.64348451       3.54705892      -1.47587252
C      -10.87583596       4.05517475      -0.74953566
C      -11.24570673       3.51019524       0.49759343
C      -12.37631545       3.95534635       1.19568977
C      -13.11429282       4.95117909       0.57153602
O      -14.25261660       5.54498741       1.02857363
C      -14.58129080       6.44075645       0.04049083
N      -13.74220899       6.46100214      -0.98150102
C      -12.80548448       5.51306798      -0.65426103
C      -11.66677865       5.06523306      -1.33814658
C      -15.79821287       7.22337653       0.24824370
C      -16.20436791       8.14789156      -0.72758832
C      -17.36872578       8.90313748      -0.56141968
C      -18.14391160       8.74343917       0.58532814
C      -17.74904246       7.83015204       1.56003439
Br     -18.79989815       7.61020543       3.11692349
C      -16.58694118       7.07363007       1.39911182
H        0.55586765       0.97173563       2.49287566
H       -0.86529636       2.40884680       3.91781930
H       -3.08327593       3.13961013       3.12543241
H       -2.49485815       0.95894123      -0.54906285
H       -7.53558249       1.78334662      -1.50963813
H       -8.78211333       5.57672681       0.19834633
H       -6.64163766       5.72857778       1.46402392
H       -9.83580745       2.49733170      -1.73513685
H       -9.51523616       4.08296771      -2.42488088
H      -10.63539347       2.72618428       0.94604463
H      -12.66215290       3.54870647       2.15746519
H      -11.41616408       5.49832088      -2.30081674
H      -15.60916626       8.28150560      -1.63050446
H      -17.66925995       9.61300828      -1.32820430
H      -19.04943504       9.33178769       0.70901733
H      -16.29789049       6.36471330       2.17171484
C        0.88175139      -0.88175139       0.88175139
C        2.00459722      -1.49977804       0.33469459
C        2.81754291      -2.29741279       1.13770067
C        2.50791642      -2.46818325       2.48777014
C        1.37699773      -1.85165953       3.04713200
C        0.56042491      -1.05968709       2.22722266
C        1.03617740      -2.03635334       4.45168037
N       -0.14289733      -1.95965434       5.04325528
C        0.13560316      -2.24452476       6.35725103
C       -0.69869840      -2.35973549       7.47794360
C       -0.12213958      -2.67511667       8.72894694
C        1.27726570      -2.81407466       8.83642047
C        2.12174141      -2.71488282       7.72319086
C        1.49608825      -2.44099796       6.51646874
O        2.08275855      -2.31871495       5.29326379
C       -1.02390654      -2.79349805       9.94507940
C       -0.62962839      -3.85525390      10.95584955
C       -0.51977475      -5.20644869      10.56682147
C       -0.15792529      -6.21222271      11.47305415
C        0.06619803      -5.79372687      12.77708303
O        0.41598188      -6.56635890      13.84383686
C        0.49875693      -5.67669141      14.88708973
N        0.24154739      -4.42181897      14.55834375
C       -0.03836357      -4.48618490      13.21647011
C       -0.39228951      -3.48820979      12.29794486
C        0.84144414      -6.23433607      16.19405288
C        0.92888430      -5.38606213      17.30972471
C        1.24467040      -5.89185153      18.57392165
C        1.47770553      -7.25558232      18.73939105
C        1.39496896      -8.10536490      17.63889503
Br       1.70937834      -9.95699919      17.86064954
C        1.08022580      -7.60530732      16.37414996
H        2.25535688      -1.36774964      -0.71436287
H        3.69109727      -2.78685943       0.71400576
H        3.14993766      -3.09875263       3.09962818
H       -0.32038805      -0.57767276       2.64745182
H       -1.76783281      -2.21383346       7.36329033
H        1.73175194      -3.02008646       9.80534806
H        3.19426608      -2.84375273       7.79622055
H       -2.04966410      -3.02174159       9.62592482
H       -1.06023597      -1.80770132      10.42585764
H       -0.70958131      -5.48660204       9.53060166
H       -0.06262749      -7.25025711      11.18069495
H       -0.47831098      -2.45966513      12.63231406
H        0.74682438      -4.31779581      17.19554721
H        1.30616441      -5.22073708      19.42716245
H        1.72115825      -7.64424962      19.72483217
H        1.01892171      -8.28676015      15.52863677
