197
Properties=species:S:1:pos:R:3 pbc="F F F"
C        0.00000000       0.00000000       0.00000000
O       -2.84988388       1.61069246      -6.04024296
C       -2.02417780       2.38829497      -6.52207979
N       -0.79851068       2.72793241      -5.95998246
N       -0.46760094       2.22634320      -4.67569247
C        0.78670089       2.51736774      -4.30572161
H        1.51777767       3.03473992      -4.91775424
C        1.23331534       2.08234393      -2.96700573
C        2.48699386       2.48844677      -2.49207755
C        2.93247546       2.10114101      -1.22411594
C        2.12830234       1.29766193      -0.41637399
C        0.88291309       0.88291309      -0.88291309
C        0.43754164       1.26804267      -2.14515811
C       -2.31715094       3.12933600      -7.82608239
O       -2.56033346       2.21858431      -8.89383272
C       -3.43843780       2.60941005      -9.86538423
C       -3.96903269       3.88700734     -10.01790856
C       -4.92220473       4.13324712     -11.01005364
C       -5.34195698       3.11925734     -11.88588975
C       -4.77085782       1.84990824     -11.76099581
C       -3.82388976       1.60258910     -10.75636377
C       -6.42774126       3.45770259     -12.85972948
O       -7.02847774       4.51974806     -12.69261696
N       -6.67775703       2.55326718     -13.88289940
N       -7.79148144       2.78255080     -14.74952003
C       -7.89428464       1.85699766     -15.71440240
H       -7.17930594       1.06186076     -15.89734324
C       -9.06592657       1.90223748     -16.61260679
C       -9.03122865       1.19186863     -17.81997083
C      -10.12455716       1.20453225     -18.69213132
C      -11.27210593       1.92274170     -18.36308681
C      -11.31965204       2.62688339     -17.16143431
Br     -12.88167222       3.59678687     -16.71186871
C      -10.22958597       2.61903837     -16.29191542
H       -0.12231225       3.30245121      -6.44077223
H        3.11738984       3.11775818      -3.11393872
H        3.90419643       2.43043488      -0.87082540
H        2.47501189       1.00151247       0.56771685
H       -0.53618782       0.94293151      -2.50833468
H       -1.47923278       3.77797321      -8.10483932
H       -3.18454543       3.75609968      -7.58762912
H       -3.68533819       4.71177262      -9.37429770
H       -5.35927663       5.12666816     -11.08774003
H       -5.07693566       1.03182722     -12.40255633
H       -3.40515911       0.60531367     -10.64461466
H       -6.13913986       1.71636764     -14.03180515
H       -8.13804210       0.63410606     -18.08715450
H      -10.07837740       0.65717224     -19.62689431
H      -12.11524523       1.92760827     -19.04499671
H      -10.26762022       3.16941072     -15.35357921
O        2.98974370      -5.88460484      -1.90619040
C        2.08017773      -6.45976222      -2.50661248
N        0.81946783      -5.93666102      -2.77221101
N        0.47706889      -4.66515639      -2.24634723
C       -0.70928311      -4.21956993      -2.68093720
H       -1.34515614      -4.72565839      -3.39945730
C       -1.19290070      -2.92203171      -2.16773259
C       -2.48622175      -2.49121833      -2.49007809
C       -2.97563417      -1.27214361      -2.00995462
C       -2.17308372      -0.46620739      -1.20304716
C       -0.88291309      -0.88291309      -0.88291309
C       -0.39410422      -2.09682029      -1.35981790
C        2.25153911      -7.89909623      -2.99071032
O        3.35092226      -8.01405355      -3.88895229
C        4.04321413      -9.19237999      -3.88719062
C        3.66063899     -10.36109373      -3.23542847
C        4.50359375     -11.47589026      -3.24879951
C        5.72821781     -11.45605286      -3.93535505
C        6.08635019     -10.29709602      -4.62930039
C        5.24428211      -9.17572970      -4.60361553
C        6.60000149     -12.66803570      -3.82165660
O        6.29639554     -13.50728910      -2.97299373
N        7.68539290     -12.76158697      -4.68221549
N        8.60999851     -13.83866187      -4.51192603
C        9.58606475     -13.83176394      -5.43141623
H        9.64649680     -13.15181596      -6.27457890
C       10.67782720     -14.81885941      -5.30788549
C       11.50227600     -15.07015200      -6.41273480
C       12.55098399     -15.99196687      -6.33112354
C       12.79402601     -16.66947115      -5.13827744
C       11.98441413     -16.42167702      -4.03140276
Br      12.31954127     -17.33741653      -2.40910810
C       10.93583424     -15.50599167      -4.11121040
H        0.14248656      -6.41832196      -3.34507579
H       -3.11876807      -3.11547244      -3.11484624
H       -3.98231698      -0.95775913      -2.26538060
H       -2.55640510       0.47714126      -0.82954367
H        0.61463349      -2.42103916      -1.10867271
H        1.34727777      -8.25168084      -3.49917668
H        2.38576197      -8.47652743      -2.06841790
H        2.72788752     -10.43976328      -2.68885637
H        4.20971663     -12.36698776      -2.69786043
H        7.02991066     -10.22925623      -5.15810233
H        5.54214636      -8.26654297      -5.12037261
H        7.88458785     -12.08944425      -5.40417653
H       11.31599478     -14.55068074      -7.34853249
H       13.17408300     -16.18194634      -7.19782581
H       13.60894181     -17.38278858      -5.08351297
H       10.30393464     -15.31316798      -3.24613636
O        2.64363405       6.22236585       1.22231975
C        1.73791147       6.77485892       1.84924951
N        0.54596107       6.18298902       2.25237625
N        0.26813858       4.85182189       1.85075141
C       -0.84360197       4.35596645       2.41022182
H       -1.46303022       4.86941110       3.13783052
C       -1.25879798       2.98950743       2.03435960
C       -2.48633546       2.49149617       2.48968654
C       -2.91110540       1.20524574       2.14138127
C       -2.10860658       0.39898223       1.33474945
C       -0.88291309       0.88291309       0.88291309
C       -0.45856874       2.16372547       1.22844820
C        1.82924793       8.25691091       2.21060447
O        2.97924886       8.52392170       3.00741074
C        3.57338434       9.74622363       2.86351719
C        3.05181188      10.82783364       2.15986145
C        3.80189966      11.99930634       2.02368934
C        5.07152368      12.12468799       2.61002579
C        5.57113323      11.05433595       3.35684350
C        4.82154187       9.87541618       3.48118880
C        5.83314531      13.38477009       2.33806603
O        5.40180684      14.12900124       1.45669289
N        6.96816278      13.62646507       3.10010727
N        7.78887164      14.75182454       2.77763649
C        8.82756708      14.89029458       3.61438791
H        9.00406584      14.28604225       4.49792166
C        9.82506690      15.94227007       3.33171453
C       10.70613951      16.34098967       4.34576065
C       11.66913699      17.32823517       4.11300824
C       11.76870573      17.92457885       2.85784945
C       10.90195389      17.53027047       1.84034906
Br      11.04238013      18.33600192       0.13336157
C        9.93846205      16.54898390       2.07084598
H       -0.12313381       6.65750621       2.84027116
H       -3.11879478       3.11517932       3.11511265
H       -3.86792039       0.83879290       2.49874342
H       -2.44202443      -0.59684547       1.06362855
H        0.49982096       2.54044738       0.87445196
H        0.93975481       8.58120959       2.76212496
H        1.84858472       8.76731024       1.24045784
H        2.07797379      10.79363394       1.68507199
H        3.39807077      12.81952563       1.43367670
H        6.55354169      11.09868246       3.81230712
H        5.22825375       9.03478414       4.03823882
H        7.27303681      13.03055053       3.85151921
H       10.63142883      15.88544211       5.32920518
H       12.33736440      17.63216175       4.91089179
H       12.51789598      18.68944771       2.68580800
H        9.26183301      16.24171026       1.27549245
O       -2.96718274      -1.85633535       5.91189893
C       -2.13345370      -2.62434135       6.39530931
N       -0.88389093      -2.91457273       5.85872240
N       -0.53228837      -2.36837084       4.59835225
C        0.73928987      -2.61462845       4.25587191
H        1.46762387      -3.12882895       4.87381902
C        1.20985667      -2.13026341       2.94254493
C        2.48689603      -2.48858808       2.49203407
C        2.95573954      -2.05391764       1.24807522
C        2.15168312      -1.25033805       0.44031709
C        0.88291309      -0.88291309       0.88291309
C        0.41427445      -1.31524586       2.12122210
C       -2.44097776      -3.40933057       7.66991464
O       -2.73858509      -2.53581376       8.75485491
C       -3.63154496      -2.97748688       9.69041457
C       -4.13009983      -4.27283985       9.79314319
C       -5.10268170      -4.57266000      10.75111773
C       -5.57438629      -3.59541920      11.64215719
C       -5.03587996      -2.30797841      11.56794778
C       -4.06918730      -2.00689898      10.59735144
C       -6.67639719      -3.99047529      12.57561270
O       -7.24236839      -5.06339811      12.36285756
N       -6.97944077      -3.12220726      13.61564307
N       -8.10950679      -3.40594282      14.44415336
C       -8.26445353      -2.51092871      15.43064023
H       -7.57728146      -1.70204085      15.65513867
C       -9.45840934      -2.61322416      16.29410287
C       -9.47653947      -1.93627595      17.52087433
C      -10.59244458      -2.00315641      18.36139458
C      -11.71002995      -2.74287028      17.98088225
C      -11.70506828      -3.41410621      16.75962773
Br     -13.22647313      -4.41323998      16.24021651
C      -10.59236011      -3.35220357      15.92152436
H       -0.20521604      -3.48369498       6.34243225
H        3.11749420      -3.11766122       3.11393132
H        3.94557036      -2.34658304       0.91330332
H        2.51664817      -0.91739828      -0.52523893
H       -0.57771553      -1.02709166       2.46570225
H       -1.59312485      -4.04244788       7.95425672
H       -3.28365330      -4.05257209       7.39026457
H       -3.80597824      -5.07121395       9.13549643
H       -5.51370666      -5.57940876      10.78942946
H       -5.38212466      -1.51683599      12.22273657
H       -3.67566934      -0.99584433      10.52459422
H       -6.46873799      -2.27544110      13.80232982
H       -8.60694147      -1.36208485      17.82807508
H      -10.58710660      -1.48114289      19.31165286
H      -12.57097103      -2.78981217      18.63851860
H      -10.58937705      -3.87690506      14.96784169
