78
Properties=species:S:1:pos:R:3 pbc="F F F"
C        1.78938910       1.78938910      -1.78938910
C        1.50031744       3.15912914      -1.93189780
C        2.27728527       4.02772922      -2.73279508
C        3.40455656       3.59632382      -3.45519134
C        3.74932378       2.22247163      -3.35284150
N        4.77722959       1.59613593      -3.95106846
S        4.70883599       0.00671437      -3.48729955
N        3.37556196       0.02765192      -2.50585744
C        2.91659211       1.29147839      -2.49484893
H        0.64181589       3.57796228      -1.40528946
H        1.98139873       5.07653172      -2.78657762
C        4.15353207       4.53253906      -4.25277313
C        4.78079906       5.31661932      -4.92074788
Br       5.79503673       6.58441079      -6.00080655
C       -1.78938910      -1.78938910      -1.78938910
C       -1.40159915      -3.11065867      -2.07908655
C       -2.17312190      -3.97657385      -2.88811382
C       -3.39321151      -3.59065873      -3.47220149
C       -3.84025841      -2.26702261      -3.21735589
N       -4.96667515      -1.68896464      -3.66879420
S       -4.98883252      -0.14395781      -3.07005957
N       -3.57492212      -0.12536680      -2.20878241
C       -3.01340202      -1.33887529      -2.35064212
H       -0.46704197      -3.49220438      -1.66582128
H       -1.79719423      -4.98609989      -3.06121396
C       -4.13103425      -4.52141186      -4.28639815
C       -4.74896080      -5.30091760      -4.96828786
Br      -5.74809576      -6.56131246      -6.07084585
C       -1.78938910       1.78938910       1.78938910
C       -3.12580705       1.42647285       2.03906448
C       -3.99260168       2.19943965       2.84576823
C       -3.59276518       3.39667031       3.46663624
C       -2.25344588       3.81796537       3.25322566
N       -1.66062241       4.92013711       3.74367447
S       -0.10189652       4.91976772       3.18118566
N       -0.09543319       3.52577102       2.28786712
C       -1.32454692       2.98987477       2.38849775
H       -3.51880841       0.51072588       1.59553333
H       -5.01431911       1.84353030       2.98665866
C       -4.52517614       4.13721522       4.27645290
C       -5.30607032       4.75742158       4.95467436
Br      -6.56871017       5.76024281       6.05130109
C        1.78938910      -1.78938910       1.78938910
C        3.11572604      -1.40950422       2.06611411
C        3.98196542      -2.18153272       2.87431142
C        3.59161329      -3.39470062       3.46975782
C        2.26273890      -3.83357585       3.22832216
N        1.67998165      -4.95266175       3.69179058
S        0.13050594      -4.96784769       3.10449627
N        0.11580363      -3.56000363       2.23326407
C        1.33444264      -3.00648711       2.36198968
H        3.50095676      -0.48069563       1.64341523
H        4.99550748      -1.81187002       3.03713057
C        4.52288436      -4.13333136       4.28262854
C        5.30282389      -4.75193460       4.96340777
Br       6.56392014      -5.75216373       6.06417020
C       -0.00445707       0.01189536      -1.78238275
H       -0.66409135       0.67374010      -2.43557963
H        0.65740317      -0.63156657      -2.45157240
C       -0.90989263      -0.90692880      -0.91072765
C        0.90977584       0.90977584      -0.90977584
C       -0.00465871       1.77757030       0.00794375
H       -0.66225468       2.44313916      -0.64384735
H        0.64322798       2.43503045       0.67728295
C       -1.78241447       0.00034974      -0.00472694
H       -2.45427497      -0.65498947       0.64260836
H       -2.43311707       0.67328779      -0.65473579
C       -0.91132561       0.90220522       0.91563759
C       -0.01476271      -0.02253852       1.78660255
H       -0.67934791      -0.69751639       2.42135241
H        0.63392994       0.61504881       2.47327442
C        0.01484550      -1.77751727      -0.01636693
H        0.67870853      -2.42144646      -0.68295456
H       -0.62264859      -2.45592969       0.64226336
C        1.78714474       0.01002794       0.00389507
H        2.44202412       0.67113390       0.66197326
H        2.45385902      -0.65136977      -0.64189061
C        0.91606151      -0.90478549       0.90901405
