49
Properties=species:S:1:pos:R:3 pbc="F F F"
C        0.00000000       0.00000000       0.00000000
C        0.87948508       0.87948508      -0.87948508
C        0.59041341       2.24922512      -1.02199377
C        1.36738124       3.11782519      -1.82289106
C        2.49465254       2.68641979      -2.54528731
Br       3.47587939       3.91294792      -3.59019286
C        2.83941976       1.31256760      -2.44293748
N        3.86732557       0.68623191      -3.04116443
S        3.79893196      -0.90318966      -2.57739552
N        2.46565794      -0.88225211      -1.59595342
C        2.00668809       0.38157437      -1.58494491
H       -0.26808814       2.66805825      -0.49538543
H        1.07149471       4.16662770      -1.87667360
C       -0.87948508      -0.87948508      -0.87948508
C       -0.49470698      -2.20271445      -1.16421088
C       -1.26639582      -3.06873812      -1.97296356
C       -2.48365335      -2.68098321      -2.56172308
Br      -3.45071488      -3.90064491      -3.62766038
C       -2.92757973      -1.35531670      -2.31202840
N       -4.05099070      -0.77530620      -2.76842502
S       -4.07038527       0.77149671      -2.17424926
N       -2.65893522       0.78848910      -1.30891312
C       -2.10054399      -0.42705409      -1.44560929
H        0.43752963      -2.58576811      -0.74711706
H       -0.89291023      -4.07985235      -2.14203342
C       -0.87948508       0.87948508       0.87948508
C       -2.21591920       0.51659753       1.12911557
C       -3.08271473       1.28956592       1.93581685
C       -2.68286300       2.48676961       2.55672703
Br      -3.90440957       3.45695584       3.61765476
C       -1.34352694       2.90803494       2.34336296
N       -0.75068732       4.01017807       2.83385653
S        0.80805342       4.00978237       2.27140888
N        0.81450353       2.61580909       1.37805369
C       -0.41462701       2.07994265       1.47863770
H       -2.60893303      -0.39912734       0.68554986
H       -4.10444528       0.93367983       2.07667090
C        0.87948508      -0.87948508       0.87948508
C        2.20665332      -0.50093451       1.15404447
C        3.07293849      -1.27303680       1.96212220
C        2.68180429      -2.48495150       2.55960386
Br       3.90197824      -3.45282294       3.62421899
C        1.35206859      -2.92244432       2.32041192
N        0.76848130      -4.04020022       2.78604040
S       -0.78175719      -4.05416298       2.20073204
N       -0.79578012      -2.64740778       1.32773159
C        0.42372265      -2.09527682       1.45420790
H        2.59252480       0.42684700       0.72967775
H        4.08715470      -0.90445558       2.12318572
