57
Properties=species:S:1:pos:R:3 pbc="F F F"
C        0.00000000       0.00000000       0.00000000
C        0.87948508       0.87948508      -0.87948508
C        0.59041341       2.24922512      -1.02199377
C        1.36738124       3.11782519      -1.82289106
C        2.49465254       2.68641979      -2.54528731
C        2.83941976       1.31256760      -2.44293748
N        3.86732557       0.68623191      -3.04116443
S        3.79893196      -0.90318966      -2.57739552
N        2.46565794      -0.88225211      -1.59595342
C        2.00668809       0.38157437      -1.58494491
H       -0.26808814       2.66805825      -0.49538543
H        1.07149471       4.16662770      -1.87667360
C        3.24362805       3.62263503      -3.34286910
C        3.87089504       4.40671530      -4.01084385
Br       4.88513271       5.67450677      -5.09090253
C       -0.87948508      -0.87948508      -0.87948508
C       -0.48589456      -2.19687610      -1.17886163
C       -1.25709743      -3.06257658      -1.98842348
C       -2.48264143      -2.68030255      -2.56341566
C       -2.93569818      -1.36068470      -2.29854197
N       -4.06790385      -0.78649096      -2.74032711
S       -4.09538216       0.75496130      -2.13271697
N       -2.67673328       0.77671612      -1.27934209
C       -2.10918725      -0.43276558      -1.43125453
H        0.45313189      -2.57543744      -0.77305000
H       -0.87646650      -4.06895948      -2.16937002
C       -3.21980877      -3.61061844      -3.37870498
C       -3.83718641      -4.38975800      -4.06150978
Br      -4.83543385      -5.64956076      -5.16554739
C       -0.87948508       0.87948508       0.87948508
C       -2.21503871       0.51504269       1.13155091
C       -3.08178574       1.28792511       1.93838665
C       -2.68276243       2.48658915       2.55700806
C       -1.34433866       2.90946535       2.34112083
N       -0.75237828       4.01315835       2.82918529
S        0.80555451       4.01418800       2.26450433
N        0.81272426       2.61894587       1.37313764
C       -0.41549138       2.08146487       1.47625111
H       -2.60737380      -0.40187903       0.68986078
H       -4.10280222       0.93077879       2.08121499
C       -3.61507566       3.22696190       3.36709462
C       -4.39588798       3.84702408       4.04554212
Br      -5.65839548       4.84961218       5.14253434
C        0.87948508      -0.87948508       0.87948508
C        2.20299343      -0.49514030       1.16349858
C        3.06907700      -1.26692217       1.97209833
C        2.68138589      -2.48427880       2.56069496
C        1.35544220      -2.92777465       2.31170799
N        0.77550923      -4.05130605       2.76790663
S       -0.77137109      -4.07058037       2.17392855
N       -0.78838504      -2.65909685       1.30864743
C        0.42731498      -2.10094920       1.44494318
H        2.58604391       0.43710125       0.74641289
H        4.08032520      -0.89364467       2.14082613
C        3.61233716      -3.22240644       3.37438858
C        4.39200884      -3.84058835       4.05585699
Br       5.65267202      -4.84013621       5.15773377
