70
Properties=species:S:1:pos:R:3 pbc="F F F"
C        1.78938910       1.78938910      -1.78938910
C        1.50031744       3.15912914      -1.93189780
C        2.27728527       4.02772922      -2.73279508
C        3.40455656       3.59632382      -3.45519134
Br       4.38578341       4.82285194      -4.50009688
C        3.74932378       2.22247163      -3.35284150
N        4.77722959       1.59613593      -3.95106846
S        4.70883599       0.00671437      -3.48729955
N        3.37556196       0.02765192      -2.50585744
C        2.91659211       1.29147839      -2.49484893
H        0.64181589       3.57796228      -1.40528946
H        1.98139873       5.07653172      -2.78657762
C       -1.78938910      -1.78938910      -1.78938910
C       -1.41086703      -3.11657502      -2.06390232
C       -2.18290088      -3.98281774      -2.87209095
C       -3.39427585      -3.59134867      -3.47044720
Br      -4.36226341      -4.81159468      -4.53487415
C       -3.83172049      -2.26158309      -3.23133333
N       -4.94888810      -1.67763081      -3.69791508
S       -4.96254398      -0.12720193      -3.11310398
N       -3.55620440      -0.11343685      -2.23943007
C       -3.00431221      -1.33308776      -2.36551946
H       -0.48345056      -3.50267297      -1.63894409
H       -1.81448783      -4.99713828      -3.03288196
C       -1.78938910       1.78938910       1.78938910
C       -3.12674337       1.42814241       2.03645860
C       -3.99358956       2.20120153       2.84301847
C       -3.59287211       3.39686408       3.46633553
Br      -4.81455499       4.36729281       4.52688444
C       -2.25258270       3.81642940       3.25562481
N       -1.65882424       4.91693690       3.74867284
S       -0.09923917       4.91503700       3.18857373
N       -0.09354110       3.52240277       2.29312745
C       -1.32362773       2.98824022       2.39105148
H       -3.52046648       0.51368062       1.59092052
H       -5.01606633       1.84664540       2.98179635
C        1.78938910      -1.78938910       1.78938910
C        3.11945928      -1.41558401       2.05630109
C        3.98590430      -2.18794871       2.86395657
C        3.59203997      -3.39540642       3.46862533
Br       4.81264379      -4.36397916       4.53210928
C        2.25929759      -3.82798275       3.23735657
N        1.67281269      -4.94100844       3.71061285
S        0.11991147      -4.95062101       3.13231742
N        0.10826017      -3.54773835       2.25307280
C        1.33077818      -3.00053508       2.37160617
H        3.50756758      -0.49145530       1.62604474
H        5.00247386      -1.82321375       3.01882046
C       -0.00445707       0.01189536      -1.78238275
H       -0.66409135       0.67374010      -2.43557963
H        0.65740317      -0.63156657      -2.45157240
C       -0.90989263      -0.90692880      -0.91072765
C        0.90977584       0.90977584      -0.90977584
C       -0.00465871       1.77757030       0.00794375
H       -0.66225468       2.44313916      -0.64384735
H        0.64322798       2.43503045       0.67728295
C       -1.78241447       0.00034974      -0.00472694
H       -2.45427497      -0.65498947       0.64260836
H       -2.43311707       0.67328779      -0.65473579
C       -0.91132561       0.90220522       0.91563759
C       -0.01476271      -0.02253852       1.78660255
H       -0.67934791      -0.69751639       2.42135241
H        0.63392994       0.61504881       2.47327442
C        0.01484550      -1.77751727      -0.01636693
H        0.67870853      -2.42144646      -0.68295456
H       -0.62264859      -2.45592969       0.64226336
C        1.78714474       0.01002794       0.00389507
H        2.44202412       0.67113390       0.66197326
H        2.45385902      -0.65136977      -0.64189061
C        0.91606151      -0.90478549       0.90901405
