169
Properties=species:S:1:pos:R:3 pbc="F F F"
C        0.00000000       0.00000000       0.00000000
C        0.88212719       0.88212719      -0.88212719
C        1.17194520       0.48937368      -2.18419617
C        1.98425739       1.29909772      -2.98408329
C        2.51651670       2.50529537      -2.50172509
C        2.20292391       2.87927983      -1.18699663
C        1.39269983       2.07461173      -0.37782570
C        3.37986315       3.34349527      -3.34297982
C        4.01981707       4.62204501      -2.89889721
C        5.04968376       4.86641050      -3.99554037
H        5.04385066       5.91702901      -4.31417912
C        6.46201863       4.51110678      -3.52546002
C        7.27477945       5.50548256      -2.95586058
C        8.54565293       5.19417297      -2.46535429
C        9.01278863       3.88360560      -2.53866664
Br      10.72984893       3.46033517      -1.86659106
C        8.22369497       2.88175637      -3.09689579
C        6.95336656       3.19695003      -3.58261073
N        4.56524610       4.05935488      -5.11196162
N        3.64481532       3.04554161      -4.63005001
C        4.99762592       4.20546712      -6.41982689
O        5.83104694       5.05804014      -6.74571857
C        4.47197182       3.32437256      -7.50587892
C        3.14237769       2.89360355      -7.57039877
C        2.70419342       2.09720790      -8.63326822
C        3.58452412       1.74938664      -9.65661638
C        4.90328031       2.19928961      -9.62198705
C        5.34297765       2.98535112      -8.55275329
H        0.78224173      -0.43645906      -2.59372597
H        2.21257624       0.98451907      -4.00068565
H        2.58996031       3.80655228      -0.77590370
H        1.17413869       2.39130442       0.63674868
H        4.46485106       4.56553677      -1.90082260
H        3.26617412       5.41919231      -2.90001414
H        6.91151954       6.52820498      -2.89486914
H        9.15548666       5.97822730      -2.02882274
H        8.57297097       1.85637347      -3.15856501
H        6.32656773       2.41383454      -4.00834022
H        2.44236565       3.17950421      -6.78958192
H        1.67408599       1.75434192      -8.65200710
H        3.24106237       1.13233788     -10.48102282
H        5.59229527       1.94195985     -10.42114941
H        6.37112831       3.34021558      -8.52646341
C       -0.88212719      -0.88212719      -0.88212719
C       -0.80756092      -2.26627814      -0.77167599
C       -1.61405343      -3.06747620      -1.58590876
C       -2.50194873      -2.50500670      -2.51658172
C       -2.56047146      -1.10645473      -2.60227419
C       -1.75574921      -0.29604444      -1.79334361
C       -3.33566589      -3.35293579      -3.37773656
C       -4.27914235      -2.84048106      -4.42113588
C       -4.59001562      -4.09908618      -5.22253284
H       -5.66423694      -4.17442961      -5.43639224
C       -3.82968560      -4.11842485      -6.55047498
C       -4.43567076      -3.59540413      -7.70504770
C       -3.74096363      -3.54766863      -8.91654794
C       -2.43220433      -4.02102279      -8.98183375
Br      -1.48854039      -3.94830750     -10.61992726
C       -1.81109873      -4.54141060      -7.84983779
C       -2.50802845      -4.58397687      -6.64092200
N       -4.23964338      -5.18530757      -4.31161165
N       -3.35123611      -4.69618228      -3.27298856
C       -4.64226035      -6.49987728      -4.48078230
O       -5.35515849      -6.85291820      -5.42672896
C       -4.22282685      -7.56200184      -3.51739461
C       -4.11724033      -7.35079917      -2.13834050
C       -3.75248060      -8.39712887      -1.28506008
C       -3.51918231      -9.67133541      -1.80000941
C       -3.65317462      -9.90358846      -3.16779388
C       -4.00617885      -8.85388337      -4.02101983
H       -0.13278397      -2.74002418      -0.06670048
H       -1.54795859      -4.15039881      -1.49942357
H       -3.23673692      -0.63020946      -3.30546992
H       -1.82231863       0.78275905      -1.88913485
H       -3.85966037      -2.03714911      -5.03440094
H       -5.18692458      -2.46734188      -3.93111411
H       -5.45568048      -3.22281448      -7.65609870
H       -4.22877016      -3.13862518      -9.79514135
H       -0.79173345      -4.91138281      -7.88479319
H       -2.02174199      -4.97805425      -5.74894625
H       -4.32048561      -6.36651270      -1.72445347
H       -3.65358466      -8.20610110      -0.22074926
H       -3.23764592     -10.48179242      -1.13498473
H       -3.48407515     -10.89605148      -3.57527791
H       -4.11468885      -9.03475367      -5.08836477
C       -0.88212719       0.88212719       0.88212719
C       -1.31740459       0.41187304       2.11623742
C       -2.12882481       1.22262827       2.91598532
C       -2.51611805       2.50658225       2.50083684
C       -2.05764462       2.95712528       1.25443048
C       -1.24706134       2.15233090       0.44574502
C       -3.37955247       3.34676526       3.34002051
C       -3.87125825       4.70898471       2.96051633
C       -4.97105059       4.95363177       3.98695227
H       -4.90794324       5.97011801       4.39699754
C       -6.36032113       4.76457435       3.37368995
C       -7.03558717       5.87025470       2.83028072
C       -8.27902943       5.71397907       2.21217170
C       -8.85604762       4.44844850       2.13056475
Br     -10.53543232       4.23542431       1.28591853
C       -8.20387601       3.33837621       2.66009491
C       -6.96023313       3.49894638       3.27374782
N       -4.65498976       4.01849660       5.06307624
N       -3.78109009       2.96963532       4.56968154
C       -5.18840092       4.09536418       6.33915483
O       -5.97521344       4.98914856       6.67044366
C       -4.83476066       3.08554539       7.38191725
C       -3.55567587       2.53464345       7.51606068
C       -3.27990974       1.61855915       8.53620066
C       -4.27299811       1.26803233       9.44949670
C       -5.54241804       1.83453155       9.34760737
C       -5.81996330       2.74100983       8.32010893
H       -1.04232180      -0.57517155       2.47235839
H       -2.47134388       0.84777920       3.87865788
H       -2.32982374       3.94548972       0.89710285
H       -0.91423667       2.52997946      -0.51552170
H       -4.22906558       4.77370714       1.92843771
H       -3.05825707       5.43334096       3.09378254
H       -6.58623378       6.85825332       2.89010656
H       -8.78179360       6.58201669       1.79872640
H       -8.63962428       2.34644007       2.60184510
H       -6.43959215       2.63121503       3.67793531
H       -2.76816454       2.81994554       6.82334169
H       -2.28690459       1.18523220       8.60829823
H       -4.05548632       0.55782470      10.24111205
H       -6.31831294       1.57512143      10.06197017
H       -6.80937813       3.18668939       8.24173977
C        0.88212719      -0.88212719       0.88212719
C        1.65071904      -1.88803602       0.30675998
C        2.45167994      -2.69494482       1.12081363
C        2.49893979      -2.51259782       2.51199954
C        1.71807092      -1.48691722       3.06421223
C        0.91147301      -0.67550321       2.25816104
C        3.33184773      -3.37268122       3.36180929
C        3.41295788      -3.27428845       4.85351296
C        4.10476417      -4.58004918       5.22682129
H        4.88900276      -4.40996501       5.97609103
C        3.11069905      -5.59852086       5.78936551
C        2.89496970      -5.66512536       7.17602753
C        1.95001235      -6.54528876       7.70987909
C        1.21088087      -7.36477443       6.85940558
Br      -0.07474546      -8.55010216       7.58141846
C        1.40636583      -7.31396247       5.48201883
C        2.34921474      -6.43064914       4.95306344
N        4.75532345      -4.99438348       3.98685567
N        4.14329919      -4.32169763       2.85541013
C        5.75358738      -5.95220390       3.91712866
O        6.18567570      -6.52635215       4.92277781
C        6.35532707      -6.34087214       2.60602408
C        6.60309472      -5.42966679       1.57361849
C        7.20133734      -5.85142282       0.38190939
C        7.58436066      -7.18239560       0.22377087
C        7.37369062      -8.09383947       1.25702687
C        6.76466945      -7.67332250       2.44309010
H        1.64043527      -2.06286420      -0.76379084
H        3.04717492      -3.48441921       0.66618684
H        1.72863147      -1.30870490       4.13507992
H        0.31566207       0.10571181       2.71874417
H        2.43928795      -3.15379638       5.33812609
H        4.04451971      -2.41854475       5.12231610
H        3.46830751      -5.02477286       7.84151329
H        1.79968460      -6.57897825       8.78387384
H        0.83656681      -7.94415355       4.80718910
H        2.49650461      -6.37754247       3.87469541
H        6.32983125      -4.38487161       1.69674891
H        7.36344201      -5.13268257      -0.41568956
H        8.04982486      -7.50641625      -0.70181804
H        7.67946498      -9.13006699       1.14587256
H        6.60304543      -8.38300401       3.25175786
