178
Properties=species:S:1:pos:R:3 pbc="F F F"
O        3.73789581       9.14510210     -10.26569343
C        3.99670866       8.32731924      -9.20688739
C        5.22130899       7.68494194      -9.06768736
C        5.43661064       6.85212137      -7.96543287
C        4.43148091       6.64872875      -7.00800123
C        3.20830719       7.31888406      -7.16415697
C        2.99239971       8.15493352      -8.26310650
C        4.67969134       5.74113441      -5.88687616
N        3.69313874       5.04924580      -5.23359443
H        2.70720820       5.11428842      -5.43820442
C        4.25110883       4.23765291      -4.26925668
C        3.41817934       3.39864616      -3.41244830
C        3.59248391       3.38349146      -2.02327110
C        2.78750113       2.57547021      -1.21400299
C        1.79132919       1.79132919      -1.79132919
C        1.59548154       1.80257432      -3.16957260
C        2.40926359       2.60185847      -3.97656077
C        5.61091142       4.49818974      -4.37590435
N        5.85194167       5.42037564      -5.37711705
C        6.70577730       3.93751747      -3.59622340
C        7.83444258       4.73396067      -3.34420065
C        8.91272007       4.24016415      -2.60404841
C        8.86951220       2.93860653      -2.11257723
Br      10.31728563       2.26824596      -1.09960017
C        7.76463892       2.12737416      -2.36252676
C        6.69252929       2.62213281      -3.11394563
H        4.52756389       9.18017725     -10.83042825
H        6.01512181       7.81440192      -9.79634052
H        6.39566362       6.34701825      -7.85588772
H        2.41295592       7.21919420      -6.43127047
H        2.04484207       8.67402204      -8.37953796
H        4.35931404       3.99869121      -1.55649162
H        2.94401307       2.56959061      -0.13872315
H        0.82154748       1.19103830      -3.62694677
H        2.25582508       2.58205937      -5.05341247
H        7.87828358       5.75007693      -3.73396735
H        9.77440884       4.87703878      -2.42378695
H        7.72953582       1.10728556      -1.98848011
H        5.85596050       1.96044859      -3.32261573
O       -3.94751668     -10.83828216      -8.36289250
C       -4.16896379      -9.67740995      -7.68454154
C       -5.10396674      -8.74716178      -8.12280977
C       -5.29138000      -7.56872890      -7.39405600
C       -4.54189745      -7.30960892      -6.23670452
C       -3.61331652      -8.27045798      -5.80757371
C       -3.42723459      -9.45087731      -6.53232785
C       -4.73895607      -6.04876041      -5.51998544
N       -3.76930775      -5.44165347      -4.76501775
H       -2.84321335      -5.80970852      -4.60677917
C       -4.24219396      -4.24490533      -4.27091912
C       -3.41306588      -3.39848066      -3.41772726
C       -3.90576432      -2.87901049      -2.21447167
C       -3.10081437      -2.06983203      -1.40632794
C       -1.79132919      -1.79132919      -1.79132919
C       -1.28037730      -2.30885135      -2.97839980
C       -2.09098396      -3.10716580      -3.78953306
C       -5.54134097      -4.18586957      -4.75779498
N       -5.82394143      -5.30063316      -5.52485976
C       -6.54174446      -3.14816040      -4.54961331
C       -7.89659901      -3.51398370      -4.50202119
C       -8.89454486      -2.55440201      -4.30798575
C       -8.54121690      -1.21582401      -4.16365506
Br      -9.88336409       0.08567583      -3.88744350
C       -7.20360418      -0.83003537      -4.22090029
C       -6.20884635      -1.79274414      -4.42701724
H       -4.54050778     -10.86578504      -9.13187658
H       -5.69219568      -8.91425342      -9.01941515
H       -6.02308841      -6.83818197      -7.73729920
H       -3.03464462      -8.12944084      -4.89933513
H       -2.70897645     -10.19365057      -6.19577505
H       -4.92309691      -3.09648965      -1.89491031
H       -3.50379753      -1.66779931      -0.48072999
H       -0.26009220      -2.09330667      -3.28613369
H       -1.68185513      -3.48558801      -4.72385377
H       -8.18016177      -4.55856108      -4.62360500
H       -9.93556455      -2.86399095      -4.27567908
H       -6.92283795       0.21505103      -4.11751457
H       -5.17549826      -1.46390285      -4.49962371
O      -10.43550613       8.93311078       3.78007443
C       -9.35655999       8.14047048       4.03388482
C       -8.47930958       8.41946287       5.07516584
C       -7.38399971       7.57797276       5.29219242
C       -7.15414114       6.46629014       4.46777961
C       -8.06160415       6.19852609       3.43121797
C       -9.15932348       7.03611132       3.21500494
C       -5.97687303       5.62878384       4.70204505
N       -5.34998875       4.90394109       3.72204913
H       -5.64732355       4.85322761       2.75914988
C       -4.24258193       4.27095322       4.24448327
C       -3.39820956       3.41642156       3.41464267
C       -3.02192215       2.13679229       3.84053203
C       -2.21302970       1.32830206       3.03564257
C       -1.79132919       1.79132919       1.79132919
C       -2.16538771       3.05618185       1.34605890
C       -2.96374658       3.86623867       2.15769758
C       -4.25828079       4.64502902       5.58169571
N       -5.32831447       5.48129996       5.83981993
C       -3.33189160       4.26750485       6.64012173
C       -3.81718985       4.14348890       7.95192515
C       -2.96702805       3.78702646       9.00287811
C       -1.61863089       3.55524083       8.74682424
Br      -0.46559159       3.05973160      10.15980856
C       -1.11423839       3.68571636       7.45458509
C       -1.96681427       4.05419231       6.40760116
H      -10.45287797       9.65150467       4.43378675
H       -8.62463288       9.27714203       5.72408934
H       -6.69492412       7.79634569       6.10729978
H       -7.94393874       5.33080458       2.78867727
H       -9.86117631       6.82436964       2.41285612
H       -3.35228397       1.75685425       4.80535865
H       -1.92324919       0.34181831       3.38725933
H       -1.83763785       3.42478147       0.37711324
H       -3.22884698       4.85981624       1.80263369
H       -4.86939557       4.33262743       8.16030485
H       -3.36787429       3.69845603      10.00890425
H       -0.06031146       3.51437887       7.25061116
H       -1.54428812       4.18048287       5.41425383
O       10.69881630      -3.87708163       8.57279342
C        9.55390476      -4.10658943       7.87042110
C        9.25865007      -5.36228591       7.35300231
C        8.07282170      -5.54596420       6.63537899
C        7.18633793      -4.47964136       6.42223161
C        7.50077816      -3.22460174       6.96596832
C        8.68366232      -3.03976463       7.68701279
C        5.97244160      -4.70041245       5.63484787
N        5.34292697      -3.71944747       4.91360453
H        5.63229303      -2.75361242       4.87379559
C        4.26792739      -4.25382090       4.23627013
C        3.41075316      -3.41926391       3.39925672
C        2.01615904      -3.46999466       3.51309277
C        1.20665205      -2.66487880       2.70544349
C        1.79132919      -1.79132919       1.79132919
C        3.17648007      -1.71855964       1.67258875
C        3.98222864      -2.53292079       2.47253339
C        4.28598225      -5.59190132       4.60712195
N        5.34221053      -5.84493943       5.46228440
C        3.37278372      -6.65518696       4.21154749
C        3.10131199      -7.68818561       5.12310629
C        2.23465415      -8.73306120       4.78921727
C        1.63455831      -8.75269212       3.53344552
Br       0.45121208     -10.15451095       3.07940873
C        1.90071498      -7.74433420       2.60949066
C        2.77813925      -6.70650476       2.94396373
H       11.19809151      -4.70833397       8.63174391
H        9.92870029      -6.20452623       7.49263772
H        7.84088552      -6.52948818       6.22819588
H        6.82929850      -2.37802803       6.85609406
H        8.92273994      -2.06712288       8.10853925
H        1.54491483      -4.13949828       4.23008376
H        0.12593723      -2.72510416       2.80128544
H        3.63929333      -1.04086862       0.95937061
H        5.06196944      -2.47798196       2.35134551
H        3.57501167      -7.68343550       6.10388070
H        2.04201862      -9.52044026       5.51277569
H        1.44155403      -7.75948047       1.62426698
H        2.99471926      -5.94861319       2.19569237
C       -0.00445707       0.01189536      -1.78238275
H       -0.66409135       0.67374010      -2.43557963
H        0.65740317      -0.63156657      -2.45157240
C       -0.90989263      -0.90692880      -0.91072765
C        0.90977584       0.90977584      -0.90977584
C       -0.00465871       1.77757030       0.00794375
H       -0.66225468       2.44313916      -0.64384735
H        0.64322798       2.43503045       0.67728295
C       -1.78241447       0.00034974      -0.00472694
H       -2.45427497      -0.65498947       0.64260836
H       -2.43311707       0.67328779      -0.65473579
C       -0.91132561       0.90220522       0.91563759
C       -0.01476271      -0.02253852       1.78660255
H       -0.67934791      -0.69751639       2.42135241
H        0.63392994       0.61504881       2.47327442
C        0.01484550      -1.77751727      -0.01636693
H        0.67870853      -2.42144646      -0.68295456
H       -0.62264859      -2.45592969       0.64226336
C        1.78714474       0.01002794       0.00389507
H        2.44202412       0.67113390       0.66197326
H        2.45385902      -0.65136977      -0.64189061
C        0.91606151      -0.90478549       0.90901405
