198
Properties=species:S:1:pos:R:3 pbc="F F F"
C       12.42076191       6.14263795      -7.64700033
S       11.83485288       4.43605383      -7.48000733
C       10.15920346       4.62699744      -6.88475701
C        9.44721946       3.44879323      -6.62205877
C        8.13072079       3.48756081      -6.14494465
C        7.49430694       4.71249910      -5.91958806
C        8.19958177       5.88915568      -6.19921000
C        9.51813302       5.84878358      -6.67141444
C        6.12843886       4.80078650      -5.40465802
N        5.53863810       3.84804758      -4.61454948
H        5.97184208       2.98143544      -4.33604111
C        4.27287988       4.26078666      -4.24530163
C        3.41167481       3.42357676      -3.40672274
C        2.03614389       3.31673861      -3.64870067
C        1.22542775       2.51360171      -2.83832711
C        1.79124527       1.79124527      -1.79124527
C        3.15802375       1.86894653      -1.54304470
C        3.96154904       2.68617922      -2.34388184
C        4.14355681       5.48777636      -4.88544075
N        5.29216149       5.80201111      -5.58334197
C        3.00465257       6.39233456      -4.90351211
C        2.69768569       7.05979844      -6.09860998
C        1.61696399       7.94311654      -6.16922392
C        0.83994373       8.16839744      -5.03746749
C        1.14148798       7.52880046      -3.83613100
C        2.22877645       6.65017587      -3.76705745
H       13.45720220       6.12631869      -7.99543561
H       12.39400184       6.65926094      -6.68382269
H       11.82362807       6.68781343      -8.38278173
H        9.91304257       2.47960538      -6.79266899
H        7.61647653       2.54546156      -5.97770707
H        7.72055519       6.85515901      -6.04146253
H       10.01093332       6.79581726      -6.86245531
H        1.57478949       3.85544285      -4.47382218
H        0.15806714       2.45942244      -3.03655424
H        3.60749398       1.30650514      -0.72863424
H        5.02229525       2.74815123      -2.11213724
H        3.30919982       6.89497800      -6.98494844
H        1.39978031       8.44928996      -7.10716098
H        0.54299322       7.71056999      -2.94757357
H        2.46490683       6.17981849      -2.81589227
C       -0.27830687       9.07298140      -5.10706248
C       -1.21484174       9.83057047      -5.16534828
Br      -2.72913943      11.05552791      -5.25959149
C      -12.21564452      -8.28876804      -5.70598763
S      -12.11225907      -6.61206370      -5.02659127
C      -10.35916862      -6.25910950      -5.05267978
C       -9.96024508      -5.01691318      -4.54091320
C       -8.60996070      -4.64550722      -4.50775834
C       -7.62418244      -5.51323585      -4.98897580
C       -8.02461486      -6.74664340      -5.51668918
C       -9.37512450      -7.11885700      -5.54434955
C       -6.20176703      -5.17523012      -4.95688623
N       -5.63101164      -4.32553279      -4.04469074
H       -6.13473749      -3.82637680      -3.32820435
C       -4.26497667      -4.27002905      -4.24396245
C       -3.40634478      -3.42339922      -3.41223030
C       -2.33889601      -2.70145515      -3.96123201
C       -1.52621358      -1.89723365      -3.15390933
C       -1.79124527      -1.79124527      -1.79124527
C       -2.85663951      -2.48601042      -1.22736504
C       -3.65525772      -3.30220076      -2.03415162
C       -4.07301863      -5.10613938      -5.33761591
N       -5.26940598      -5.65453902      -5.75356957
C       -2.83879916      -5.42243137      -6.03926872
C       -2.87453623      -5.54528311      -7.43627477
C       -1.71826659      -5.85227010      -8.15876775
C       -0.51783082      -6.04528873      -7.48268911
C       -0.46708698      -5.94618504      -6.09314742
C       -1.62839102      -5.64553288      -5.37208588
H      -13.26363472      -8.60106616      -5.71425562
H      -11.65542154      -8.99467982      -5.08698411
H      -11.84547685      -8.31442166      -6.73432473
H      -10.70427066      -4.31708838      -4.16395790
H       -8.35634164      -3.66283009      -4.12047345
H       -7.27524788      -7.43473224      -5.90719661
H       -9.61844965      -8.09045133      -5.96030491
H       -2.12507070      -2.75211196      -5.02687186
H       -0.69420401      -1.35909856      -3.60074125
H       -3.07110307      -2.40688474      -0.16464555
H       -4.46566123      -3.85372401      -1.56319847
H       -3.81403337      -5.40543406      -7.96965883
H       -1.77185536      -5.94301907      -9.24135682
H        0.46670663      -6.10670477      -5.56113863
H       -1.57591993      -5.59733891      -4.28735875
C        0.67739446      -6.35572075      -8.22341072
C        1.67839563      -6.61570756      -8.84376507
Br       3.29692986      -7.03608424      -9.84682558
C       -5.74726132      12.24190555       8.22123332
S       -5.08418222      12.12804645       6.53868536
C       -5.09561296      10.37119087       6.20415408
C       -4.59257103       9.96462975       4.96087068
C       -4.54916057       8.61095624       4.60310945
C       -5.01106982       7.62937125       5.48595301
C       -5.53016339       8.03718458       6.72059948
C       -5.56807396       9.39114853       7.07910856
C       -4.96762643       6.20391217       5.16234477
N       -4.05834973       5.63377240       4.30911303
H       -3.35235648       6.13963547       3.79732668
C       -4.24391251       4.26524653       4.26980913
C       -3.41205347       3.40646202       3.42345882
C       -3.95731114       2.32591943       2.71835260
C       -3.14990047       1.51326995       1.91418615
C       -1.79124527       1.79124527       1.79124527
C       -1.23137004       2.86960354       2.46904140
C       -2.03797418       3.66832080       3.28531512
C       -5.32680556       4.07073852       5.11922984
N       -5.74953825       5.26842436       5.65955196
C       -6.01223005       2.83270485       5.45556434
C       -7.40818922       2.85528709       5.59261781
C       -8.11536154       1.69488239       5.91906052
C       -7.42482952       0.50357622       6.11740292
C       -6.03593189       0.46615964       6.00432792
C       -5.33017796       1.63164954       5.68418228
H       -5.76324245      13.29295755       8.52275650
H       -5.11518276      11.69550783       8.92639487
H       -6.77135803      11.86142111       8.26144409
H       -4.23065414      10.70516378       4.24949902
H       -4.16942254       8.35110709       3.61911554
H       -5.90569643       7.29104719       7.42043311
H       -5.97648640       9.64029295       8.05242653
H       -5.02008041       2.10163610       2.78233801
H       -3.59355820       0.67111566       1.38936997
H       -0.17182161       3.09419767       2.37661409
H       -1.56983395       4.48926034       3.82348942
H       -7.95276861       3.78771212       5.44864552
H       -9.19745567       1.73822772       6.02054784
H       -5.49257359      -0.46036090       6.16892408
H       -4.24551799       1.58988811       5.62521149
C       -8.14978623      -0.69593228       6.44788306
C       -8.75693748      -1.70052065       6.72466018
Br      -9.73864969      -3.32485508       7.17218537
C        6.36882005     -12.47792924       7.36365090
S        5.91199498     -12.20789568       5.63102338
C        5.71321365     -10.43374363       5.52400063
C        5.31659697      -9.91930518       4.28216930
C        5.12467884      -8.54450091       4.09404651
C        5.32700691      -7.64962324       5.14976394
C        5.74064192      -8.16204505       6.38526048
C        5.92710869      -9.53792963       6.57329273
C        5.12049376      -6.20924458       5.00414504
N        4.25282253      -5.64094461       4.10746803
H        3.69625857      -6.15251298       3.44054708
C        4.24373146      -4.26856920       4.26666752
C        3.40982526      -3.40819913       3.42394992
C        3.87842539      -2.17810972       2.94504806
C        3.06985791      -1.36602100       2.14147766
C        1.79124527      -1.79124527       1.79124527
C        1.31139759      -3.01710375       2.24151363
C        2.11566159      -3.81735122       3.05859729
C        5.17271083      -4.06392428       5.28013880
N        5.69182571      -5.26431223       5.72137663
C        5.62607033      -2.81097997       5.86344894
C        6.98262581      -2.67818038       6.19528792
C        7.46970151      -1.49730876       6.76229417
C        6.59619594      -0.44257121       7.00704152
C        5.24144708      -0.56336147       6.70161090
C        4.75570516      -1.74995068       6.14035394
H        6.49746309     -13.55100862       7.53048479
H        5.58175275     -12.12166261       8.03367011
H        7.31463851     -11.98205755       7.59752717
H        5.15643086     -10.58960781       3.43927826
H        4.83771164      -8.19584069       3.10609285
H        5.91481548      -7.48288420       7.21947705
H        6.24202745      -9.87096344       7.55621500
H        4.88162789      -1.83415684       3.18826980
H        3.45033533      -0.40851948       1.79518901
H        0.31495936      -3.35688168       1.97079232
H        1.70643673      -4.75900284       3.41714414
H        7.66893247      -3.50481612       6.01537767
H        8.52555001      -1.41905497       7.01162626
H        4.55460585       0.25467389       6.90120481
H        3.69224648      -1.83617523       5.93219589
C        7.09462055       0.77833580       7.58545226
C        7.51205117       1.80084542       8.06987125
Br       8.18700117       3.45415699       8.85313579
C       -0.00445707       0.01189536      -1.78238275
H       -0.66409135       0.67374010      -2.43557963
H        0.65740317      -0.63156657      -2.45157240
C       -0.90989263      -0.90692880      -0.91072765
C        0.90977584       0.90977584      -0.90977584
C       -0.00465871       1.77757030       0.00794375
H       -0.66225468       2.44313916      -0.64384735
H        0.64322798       2.43503045       0.67728295
C       -1.78241447       0.00034974      -0.00472694
H       -2.45427497      -0.65498947       0.64260836
H       -2.43311707       0.67328779      -0.65473579
C       -0.91132561       0.90220522       0.91563759
C       -0.01476271      -0.02253852       1.78660255
H       -0.67934791      -0.69751639       2.42135241
H        0.63392994       0.61504881       2.47327442
C        0.01484550      -1.77751727      -0.01636693
H        0.67870853      -2.42144646      -0.68295456
H       -0.62264859      -2.45592969       0.64226336
C        1.78714474       0.01002794       0.00389507
H        2.44202412       0.67113390       0.66197326
H        2.45385902      -0.65136977      -0.64189061
C        0.91606151      -0.90478549       0.90901405
