190
Properties=species:S:1:pos:R:3 pbc="F F F"
C       12.42076191       6.14263795      -7.64700033
S       11.83485288       4.43605383      -7.48000733
C       10.15920346       4.62699744      -6.88475701
C        9.44721946       3.44879323      -6.62205877
C        8.13072079       3.48756081      -6.14494465
C        7.49430694       4.71249910      -5.91958806
C        8.19958177       5.88915568      -6.19921000
C        9.51813302       5.84878358      -6.67141444
C        6.12843886       4.80078650      -5.40465802
N        5.53863810       3.84804758      -4.61454948
H        5.97184208       2.98143544      -4.33604111
C        4.27287988       4.26078666      -4.24530163
C        3.41167481       3.42357676      -3.40672274
C        2.03614389       3.31673861      -3.64870067
C        1.22542775       2.51360171      -2.83832711
C        1.79124527       1.79124527      -1.79124527
C        3.15802375       1.86894653      -1.54304470
C        3.96154904       2.68617922      -2.34388184
C        4.14355681       5.48777636      -4.88544075
N        5.29216149       5.80201111      -5.58334197
C        3.00465257       6.39233456      -4.90351211
C        2.69768569       7.05979844      -6.09860998
C        1.61696399       7.94311654      -6.16922392
C        0.83994373       8.16839744      -5.03746749
Br      -0.62789578       9.35577358      -5.12881935
C        1.14148798       7.52880046      -3.83613100
C        2.22877645       6.65017587      -3.76705745
H       13.45720220       6.12631869      -7.99543561
H       12.39400184       6.65926094      -6.68382269
H       11.82362807       6.68781343      -8.38278173
H        9.91304257       2.47960538      -6.79266899
H        7.61647653       2.54546156      -5.97770707
H        7.72055519       6.85515901      -6.04146253
H       10.01093332       6.79581726      -6.86245531
H        1.57478949       3.85544285      -4.47382218
H        0.15806714       2.45942244      -3.03655424
H        3.60749398       1.30650514      -0.72863424
H        5.02229525       2.74815123      -2.11213724
H        3.30919982       6.89497800      -6.98494844
H        1.39978031       8.44928996      -7.10716098
H        0.54299322       7.71056999      -2.94757357
H        2.46490683       6.17981849      -2.81589227
C      -12.40923610      -7.69390913      -6.10725496
S      -12.20462578      -5.97507138      -5.57121688
C      -10.43018292      -5.78189973      -5.45887526
C       -9.95976989      -4.53603361      -5.02226796
C       -8.58811267      -4.28340888      -4.89170471
C       -7.65222109      -5.27689444      -5.19727856
C       -8.12187849      -6.51545399      -5.65061497
C       -9.49432043      -6.76832913      -5.77568149
C       -6.21218191      -5.06383281      -5.05786866
N       -5.64453523      -4.18355957      -4.17314037
H       -6.15878946      -3.57518534      -3.55534383
C       -4.26731334      -4.26795685      -4.24369798
C       -3.40747356      -3.42382134      -3.41067940
C       -2.23116529      -2.85498453      -3.91543335
C       -1.41882821      -2.05120803      -3.10732034
C       -1.79124527      -1.79124527      -1.79124527
C       -2.96420153      -2.33188027      -1.27393317
C       -3.76379766      -3.14870871      -2.07910373
C       -4.06150473      -5.21938389      -5.23588529
N       -5.26399293      -5.69798498      -5.71553666
C       -2.80666538      -5.70929868      -5.78453517
C       -2.73104679      -5.96283391      -7.16221341
C       -1.55075745      -6.43867740      -7.73986960
C       -0.43872530      -6.67038337      -6.93670000
Br       1.16291202      -7.30627793      -7.71333124
C       -0.50110185      -6.44243372      -5.56288388
C       -1.68686813      -5.97256605      -4.98657559
H      -13.47767194      -7.91212595      -6.18915860
H      -11.97642945      -8.38329744      -5.37735858
H      -11.95424219      -7.85119634      -7.08878472
H      -10.66301802      -3.74034953      -4.78194939
H       -8.27586352      -3.29407293      -4.56970872
H       -7.41100929      -7.30128107      -5.90488637
H       -9.79277136      -7.75035103      -6.12608350
H       -1.93030628      -3.02690703      -4.94684120
H       -0.50267763      -1.63402657      -3.51733962
H       -3.26268773      -2.13195863      -0.24798700
H       -4.66194214      -3.57873565      -1.64190592
H       -3.60206401      -5.79302266      -7.79403959
H       -1.51740098      -6.62845748      -8.81037278
H        0.36238596      -6.63236952      -4.93115322
H       -1.72562948      -5.82467160      -3.91031651
C       -5.51192026      12.06521503       8.63326490
S       -4.74912859      12.01133874       6.99044671
C       -4.84591650      10.28261207       6.54242934
C       -4.28890760       9.92080702       5.30835684
C       -4.30497752       8.59151327       4.86673547
C       -4.88225320       7.59000037       5.65414051
C       -5.45461252       7.95462199       6.87871293
C       -5.43309545       9.28380216       7.32143344
C       -4.90488626       6.18712176       5.24187536
N       -3.97856955       5.61221568       4.41044993
H       -3.21129260       6.10141668       3.97660935
C       -4.24429373       4.26358252       4.27109192
C       -3.41313529       3.40578876       3.42305026
C       -3.97631447       2.40795865       2.61731005
C       -3.16943399       1.59513218       1.81279040
C       -1.79124527       1.79124527       1.79124527
C       -1.21186589       2.78761560       2.57053349
C       -2.01957908       3.58577457       3.38625645
C       -5.38991682       4.08839164       5.03846546
N       -5.77303126       5.27582503       5.62865829
C       -6.16995765       2.87929471       5.25124687
C       -7.56789076       2.98410646       5.30409689
C       -8.36421660       1.85434565       5.51074219
C       -7.76195997       0.61082763       5.67302107
Br      -8.83395977      -0.92205160       5.94478899
C       -6.37352246       0.49023703       5.64265996
C       -5.57870831       1.62477095       5.44253051
H       -5.48333085      13.09473841       9.00088724
H       -4.96147952      11.43693197       9.33867398
H       -6.55775810      11.75031355       8.58615158
H       -3.83706410      10.67826643       4.66998641
H       -3.87867827       8.36803473       3.89293218
H       -5.91961024       7.19316955       7.50439694
H       -5.88791438       9.49913216       8.28215934
H       -5.05269028       2.24969936       2.60166488
H       -3.62859144       0.81714869       1.20830369
H       -0.13683167       2.94812805       2.55767365
H       -1.53819785       4.34022280       4.00416306
H       -8.04409342       3.95697682       5.18805602
H       -9.44595649       1.96161912       5.54865563
H       -5.89951564      -0.47793063       5.77955176
H       -4.49707794       1.51631577       5.44722388
C        5.72529271     -12.22814567       8.25696180
S        5.05358245     -12.11985923       6.57747236
C        5.07280064     -10.36495383       6.23320344
C        4.56514900      -9.96244817       4.99047428
C        4.52718914      -8.61053770       4.62549943
C        4.99933286      -7.62668856       5.50037266
C        5.52298118      -8.03058222       6.73438404
C        5.55544384      -9.38274871       7.10013849
C        4.96192192      -6.20280726       5.16915420
N        4.05109485      -5.63234997       4.31779034
H        3.33952820      -6.13711167       3.81267876
C        4.24393831      -4.26510391       4.26992595
C        3.41214700      -3.40639966       3.42342765
C        3.95942522      -2.33276134       2.70939662
C        3.15206115      -1.52009424       1.90520119
C        1.79124527      -1.79124527       1.79124527
C        1.22921136      -2.86276847       2.47803514
C        2.03591205      -3.66143296       3.29426509
C        5.33254765      -4.07191452       5.11231175
N        5.75167989      -5.26893226       5.65690243
C        6.02659308      -2.83585288       5.43805328
C        7.42314179      -2.86537859       5.56757374
C        8.13845426      -1.70711769       5.88373250
C        7.45556787      -0.51095339       6.07928740
Br       8.41815632       1.06063179       6.49917262
C        6.06629400      -0.46650126       5.97362419
C        5.35240671      -1.62982049       5.66378257
H        5.73717317     -13.27760090       8.56418242
H        5.10011626     -11.67441393       8.96255527
H        6.75166616     -11.85309785       8.28945922
H        4.19526146     -10.70486477       4.28519071
H        4.14346271      -8.35399776       3.64218470
H        5.90645157      -7.28270076       7.42802440
H        5.96784365      -9.62880085       8.07256138
H        5.02374473      -2.11399275       2.76631704
H        3.59742941      -0.68328847       1.37332594
H        0.16795409      -3.08202154       2.39265773
H        1.56625196      -4.47681642       3.83951533
H        7.96179901      -3.80156689       5.42576036
H        9.22083752      -1.75587060       5.97952311
H        5.52893916       0.46388907       6.13608669
H        4.26768339      -1.58240419       5.61053001
C       -0.00445707       0.01189536      -1.78238275
H       -0.66409135       0.67374010      -2.43557963
H        0.65740317      -0.63156657      -2.45157240
C       -0.90989263      -0.90692880      -0.91072765
C        0.90977584       0.90977584      -0.90977584
C       -0.00465871       1.77757030       0.00794375
H       -0.66225468       2.44313916      -0.64384735
H        0.64322798       2.43503045       0.67728295
C       -1.78241447       0.00034974      -0.00472694
H       -2.45427497      -0.65498947       0.64260836
H       -2.43311707       0.67328779      -0.65473579
C       -0.91132561       0.90220522       0.91563759
C       -0.01476271      -0.02253852       1.78660255
H       -0.67934791      -0.69751639       2.42135241
H        0.63392994       0.61504881       2.47327442
C        0.01484550      -1.77751727      -0.01636693
H        0.67870853      -2.42144646      -0.68295456
H       -0.62264859      -2.45592969       0.64226336
C        1.78714474       0.01002794       0.00389507
H        2.44202412       0.67113390       0.66197326
H        2.45385902      -0.65136977      -0.64189061
C        0.91606151      -0.90478549       0.90901405
