197
Properties=species:S:1:pos:R:3 pbc="F F F"
C        0.00000000       0.00000000       0.00000000
C        0.88192006       0.88192006      -0.88192006
C        1.82643321       0.29597882      -1.72277807
C        2.63299308       1.10068041      -2.53192635
C        2.49969614       2.49738747      -2.50613804
C        1.54224675       3.06824372      -1.64713500
C        0.73466310       2.26536495      -0.84054763
C        3.39341262       3.37401871      -3.38035261
H        3.95147985       2.73560395      -4.07853061
C        4.37746121       4.14364523      -2.50316721
H        3.81232809       4.70926383      -1.74043925
C        5.46324450       3.36751153      -1.76201218
C        6.49280328       4.45078201      -1.59784180
C        6.29270127       5.45156018      -2.47046618
C        5.14966754       5.12357544      -3.38210009
H        5.56668005       4.64216473      -4.27911638
C        4.16122461       6.15695475      -3.83655919
C        4.46687488       7.52252683      -3.90751180
C        3.52964553       8.41799284      -4.41470000
C        2.30071735       7.97002797      -4.89143414
C        1.99885602       6.60279768      -4.86318405
C        0.69411630       6.04916014      -5.35902130
H        0.03509648       5.90222294      -4.49124549
C       -0.10055024       6.72041196      -6.43791202
C       -0.63418613       5.80609489      -7.26372111
C       -0.20436394       4.41385810      -6.89307080
C        1.03240634       4.73590793      -6.06639247
H        1.86794350       4.88558010      -6.77400205
C        1.48769533       3.74223382      -5.01978955
N        2.57925572       4.31147524      -4.19881579
C        2.91096342       5.67404273      -4.29723962
H        1.94273384      -0.78430950      -1.75437824
H        3.36598643       0.62792582      -3.18152518
H        1.41761682       4.15035138      -1.61702620
H       -0.00106926       2.72926763      -0.18896210
H        5.10448482       3.00191213      -0.79569312
H        5.86856103       2.53202641      -2.34181026
H        7.29766960       4.40980416      -0.87688737
H        6.93253614       6.31697371      -2.56434417
H        5.43076221       7.88879190      -3.56851701
H        1.58376454       8.68278160      -5.28849256
H       -0.30183601       7.78063811      -6.48890394
H       -1.30343228       6.02926337      -8.08380116
H       -0.98613096       3.90305962      -6.32239005
H        0.05129790       3.81943828      -7.77519595
H        0.64490140       3.46928631      -4.37436696
H        1.83421613       2.82570663      -5.51231877
C        3.83955993       9.82354792      -4.45906212
C        4.09911324      11.00070029      -4.49621540
Br       4.51878900      12.90405612      -4.55628910
C       -0.88192006      -0.88192006      -0.88192006
C       -1.94183748      -0.31554833      -1.58780428
C       -2.74877819      -1.12005271      -2.39676894
C       -2.50045539      -2.49687982      -2.50588645
C       -1.42731472      -3.04860624      -1.78170451
C       -0.61943640      -2.24561214      -0.97552714
C       -3.39383329      -3.37522299      -3.37872765
H       -4.06173381      -2.73410342      -3.96977718
C       -4.23027565      -4.29793519      -2.49606281
H       -3.55556251      -4.87141652      -1.83505214
C       -5.30561956      -3.68407708      -1.60307158
C       -6.22494026      -4.86414043      -1.45234641
C       -6.02220681      -5.76885230      -2.42366852
C       -4.99503582      -5.26766586      -3.39264138
H       -5.52775940      -4.75371133      -4.20649042
C       -3.96995604      -6.16887166      -4.01591086
C       -4.16850223      -7.54584222      -4.18256906
C       -3.21016755      -8.31038683      -4.84178399
C       -2.06892572      -7.71788127      -5.37537248
C       -1.87806297      -6.33612409      -5.25065069
C       -0.67185810      -5.63043588      -5.80000376
H        0.04736466      -5.49676956      -4.97916002
C        0.07599576      -6.13849682      -6.99527268
C        0.45807799      -5.11627367      -7.77743419
C       -0.04909157      -3.80245628      -7.25101712
C       -1.17733478      -4.29914758      -6.35822439
H       -2.05736417      -4.46422275      -7.00593873
C       -1.61739170      -3.43828312      -5.19404386
N       -2.58186275      -4.16702594      -4.34065807
C       -2.80895773      -5.54108817      -4.53219987
H       -2.14804282       0.74914176      -1.51390153
H       -3.57253772      -0.66285663      -2.94004308
H       -1.21282480      -4.11424234      -1.85792725
H        0.20649776      -2.69393952      -0.42971872
H       -4.89353559      -3.36798985      -0.64056462
H       -5.82742567      -2.84341129      -2.07156074
H       -6.96335146      -4.95353393      -0.66747574
H       -6.59525900      -6.67707251      -2.54152251
H       -5.06549748      -8.02252354      -3.80005009
H       -1.33437366      -8.32954332      -5.89112171
H        0.35761021      -7.16900983      -7.15630643
H        1.06789691      -5.21170319      -8.66582596
H        0.73601537      -3.27250219      -6.70283189
H       -0.42951761      -3.16321754      -8.05319699
H       -0.74570940      -3.14512287      -4.59772240
H       -2.07968807      -2.51905511      -5.57349835
C       -3.40733361      -9.72959253      -4.98524383
C       -3.57246019     -10.91817730      -5.10539144
Br      -3.83945589     -12.84001835      -5.29965997
C       -0.88192006       0.88192006       0.88192006
C       -0.33658764       2.00228224       1.50632021
C       -1.14193932       2.81165718       2.31200334
C       -2.49890919       2.50628568       2.49802679
C       -3.02809293       1.36838114       1.86115140
C       -2.22523930       0.56090638       1.05442999
C       -3.37193332       3.38438226       3.39146836
H       -2.81421454       4.29188856       3.65951131
C       -3.73849689       2.62304083       4.66273592
H       -4.21342539       1.66519094       4.38341484
C       -2.63530327       2.29255131       5.66491363
C       -3.45212254       2.16829217       6.92101239
C       -4.64047231       2.78043447       6.79382084
C       -4.73342431       3.46018987       5.46172888
H       -4.39556488       4.49882477       5.59357150
C       -6.00222065       3.49117704       4.66134087
C       -7.27183147       3.38128473       5.24379732
C       -8.41090342       3.49894607       4.45248889
C       -8.30804162       3.76442325       3.08971461
C       -7.04561193       3.91638167       2.50284415
C       -6.85932592       4.20239014       1.04058169
H       -6.64491835       3.25120235       0.53244422
C       -7.88440011       4.93988633       0.23348730
C       -7.28679126       5.77769714      -0.62885854
C       -5.79303811       5.76792137      -0.45839451
C       -5.69634646       5.19140868       0.94695160
H       -5.84618350       6.02765981       1.65368234
C       -4.43041056       4.46771811       1.35159002
N       -4.59801959       3.82008330       2.67144387
C       -5.86614555       3.74282932       3.27327090
H        0.71276013       2.25256521       1.37299751
H       -0.70079465       3.68153152       2.79311126
H       -4.08101234       1.11735686       1.98662520
H       -2.65795241      -0.30988668       0.56909474
H       -2.13551027       1.35269096       5.41388883
H       -1.88996214       3.08821983       5.76421573
H       -3.10854205       1.66279341       7.81302567
H       -5.37567625       2.85642064       7.58175713
H       -7.37453190       3.20385389       6.30968533
H       -9.20800288       3.85813865       2.48889716
H       -8.94808146       4.75356266       0.26606192
H       -7.80255082       6.37546284      -1.36838142
H       -5.31770967       5.13975086      -1.21814183
H       -5.37257964       6.77689084      -0.50353834
H       -4.17748656       3.71163231       0.59943580
H       -3.59864889       5.18130036       1.39229229
C       -9.71218463       3.35732169       5.05266365
C      -10.80200764       3.23871127       5.55531002
Br     -12.56415928       3.04692826       6.36804667
C        0.88192006      -0.88192006       0.88192006
C        0.29849430      -1.85335296       1.69334283
C        1.10345057      -2.66263828       2.49951098
C        2.49800295      -2.50628274       2.49893597
C        3.06587787      -1.51692824       1.67481936
C        2.26305417      -0.70993409       0.86758741
C        3.37296164      -3.38210031       3.39272198
H        2.75701449      -4.18060746       3.82799247
C        3.97174409      -2.53783906       4.51469050
H        4.51008685      -1.68081005       4.07113427
C        3.04099754      -1.96901303       5.58275765
C        4.01317970      -1.80974595       6.71850145
C        5.10388960      -2.57205988       6.53877816
C        4.95992257      -3.39831535       5.29710515
H        4.53012741      -4.36769829       5.59013545
C        6.11104644      -3.66993095       4.37376117
C        7.44646426      -3.65288148       4.79756778
C        8.46131364      -3.99324856       3.90777617
C        8.16528253      -4.39025901       2.60663793
C        6.83185707      -4.45016452       2.18281616
C        6.43918878      -4.86805779       0.79505117
H        6.26884232      -3.95852085       0.20120175
C        7.27251239      -5.80782342      -0.02256207
C        6.48723640      -6.65513722      -0.70674375
C        5.03522790      -6.44530476      -0.37796769
C        5.17323562      -5.71252469       0.94894644
H        5.31648207      -6.47929618       1.73174740
C        4.05181003      -4.80066494       1.39724372
N        4.44789092      -4.03912561       2.60253023
C        5.78066544      -4.05200007       3.04958025
H       -0.78016634      -1.98707237       1.70589656
H        0.63251727      -3.41512251       3.12779764
H        4.14718786      -1.38376200       1.65404454
H        2.72525373       0.04402453       0.23593127
H        2.61912947      -1.00808709       5.27487351
H        2.23151742      -2.65262543       5.85825486
H        3.83745402      -1.17259114       7.57431597
H        5.91690396      -2.65113826       7.24581181
H        7.69668220      -3.37487558       5.81651333
H        8.96998231      -4.65727974       1.92777665
H        8.34613151      -5.74986428      -0.12828975
H        6.84140059      -7.38775847      -1.41952681
H        4.54185116      -5.84997869      -1.15251114
H        4.50561796      -7.39453781      -0.25422364
H        3.79264505      -4.10536648       0.59054313
H        3.15882454      -5.39912013       1.61429687
C        9.83357114      -3.94682476       4.34177406
C       10.98283680      -3.90794483       4.70524730
Br      12.84110217      -3.84507927       5.29295278
