194
Properties=species:S:1:pos:R:3 pbc="F F F"
C        1.79163083       1.79163083      -1.79163083
C        1.55443813       3.15998194      -1.85226242
C        2.35562904       3.95767335      -2.66800007
C        3.39865751       3.39207151      -3.41717414
Cl       4.26972241       4.47943696      -4.44517984
C        3.66045895       2.01120188      -3.34698285
C        2.82831970       1.21920819      -2.53027841
C        4.73128690       1.33233240      -4.07572342
N        4.77961917       0.07513428      -4.48879410
C        6.02029863      -0.03232907      -5.06956273
C        6.65327654      -1.10569030      -5.71463847
C        7.95518266      -0.92134257      -6.22243197
C        8.59287425       0.32036024      -6.07194451
C        7.97385518       1.40361721      -5.42850967
C        6.69484907       1.16838976      -4.95219947
O        5.88297106       2.04195485      -4.29624387
N        8.54998150      -2.02994309      -6.86790349
C        9.82466938      -2.10582429      -7.40793049
O       10.66212436      -1.21425352      -7.44089885
C       10.17197097      -3.44157451      -7.97892653
C        9.96775122      -4.55669776      -7.15191693
C       10.29365574      -5.82400809      -7.60714303
C       10.83727335      -5.98133921      -8.88085625
C       11.07633971      -4.88090520      -9.74171157
C       11.64577510      -5.01671149     -11.03808717
Br      12.15880252      -6.70553095     -11.76579731
C       11.86770098      -3.90897005     -11.86059136
C       11.52293364      -2.64249788     -11.41688987
C       10.96135395      -2.48336402     -10.15074191
C       10.73294399      -3.57918759      -9.28169504
H        0.74878659       3.61362489      -1.28020652
H        2.15688959       5.02613794      -2.72537456
H        3.00056945       0.14479920      -2.47087321
H        6.12691551      -2.04851205      -5.80438591
H        9.59516846       0.48911261      -6.45630537
H        8.46181265       2.36384843      -5.31622163
H        7.96888796      -2.85548073      -6.95239270
H        9.58481083      -4.43971953      -6.14055616
H       10.14386350      -6.69263019      -6.97039379
H       11.08568708      -6.99449642      -9.19081204
H       12.31015192      -4.02535858     -12.84726042
H       11.69473051      -1.77454765     -12.04881819
H       10.71096116      -1.46865957      -9.84274373
C       -1.79163083      -1.79163083      -1.79163083
C       -1.25885015      -2.93798840      -2.36984394
C       -2.06584461      -3.73240901      -3.18304884
C       -3.40657153      -3.38810511      -3.41322653
Cl      -4.27747614      -4.41669957      -4.50016350
C       -3.96153372      -2.24110330      -2.81600666
C       -3.12471552      -1.44158512      -2.01150565
C       -5.34853964      -1.80848868      -2.98231440
N       -5.84328301      -0.58184404      -2.91842049
C       -7.19301595      -0.76204766      -3.10246867
C       -8.25171081       0.15658005      -3.16709395
C       -9.56013276      -0.32728011      -3.36885920
C       -9.78098201      -1.70789873      -3.49629825
C       -8.73306777      -2.63984132      -3.43307296
C       -7.46868981      -2.10980037      -3.23694812
O       -6.29330378      -2.78904827      -3.13881772
N      -10.59301901       0.63638986      -3.43131275
C      -11.95198090       0.40591027      -3.58070494
O      -12.50292733      -0.67943437      -3.70640799
C      -12.79108628       1.64136168      -3.55959839
C      -12.60048830       2.51840547      -2.48088756
C      -13.36395806       3.67040288      -2.38323551
C      -14.32864938       3.94333806      -3.35147907
C      -14.56599369       3.07615743      -4.44730983
C      -15.55649219       3.32639132      -5.43704990
Br     -16.68644985       4.86473133      -5.39735036
C      -15.76345394       2.44892225      -6.50479060
C      -14.98698481       1.30693732      -6.61727814
C      -14.00811482       1.04033374      -5.66095077
C      -13.77652157       1.89768806      -4.55661793
H       -0.22135663      -3.21751270      -2.20374868
H       -1.64095421      -4.62045992      -3.64698796
H       -3.52634407      -0.53964731      -1.55025049
H       -8.03743035       1.21313761      -3.05849664
H      -10.77943201      -2.10637980      -3.65477463
H       -8.90053991      -3.70472988      -3.53661291
H      -10.29830083       1.60378771      -3.37128682
H      -11.88066610       2.29236365      -1.69734501
H      -13.22644686       4.35226170      -1.54744194
H      -14.90967202       4.85509007      -3.22742074
H      -16.52875694       2.64812307      -7.25141989
H      -15.14299589       0.61702615      -7.44303130
H      -13.42557838       0.12833313      -5.78780007
C       -1.79163083       1.79163083       1.79163083
C       -3.06525204       1.35901243       2.14241802
C       -3.86950948       2.17374892       2.93804406
C       -3.40072068       3.41650056       3.39068192
Cl      -4.52421277       4.36209391       4.30803252
C       -2.10535411       3.85469292       3.05859665
C       -1.31433473       3.02456368       2.23890788
C       -1.52238639       5.12336412       3.49359221
N       -0.59621212       5.85459134       2.89274408
C       -0.39677408       6.90552902       3.75522918
C        0.43838130       8.02992040       3.67068560
C        0.43367790       8.96122419       4.72872577
C       -0.39563995       8.74817465       5.84136439
C       -1.23609110       7.62825249       5.94163846
C       -1.19418092       6.74805565       4.87320173
O       -1.90271255       5.59571725       4.72273997
N        1.28833047      10.07991209       4.59636028
C        1.48713813      11.10100539       5.51290831
O        0.93964304      11.22863975       6.59977298
C        2.49931007      12.11584187       5.09279120
C        3.75061417      11.63068399       4.68290057
C        4.74611647      12.51732252       4.30558463
C        4.50212595      13.88885789       4.35005845
C        3.25916172      14.42196099       4.77434681
C        2.99438036      15.81779992       4.84373121
Br       4.29250828      17.13681542       4.37476174
C        1.75632585      16.30855881       5.26708934
C        0.75140719      15.42421230       5.62452052
C        0.98561218      14.05118317       5.56316086
C        2.23102787      13.51416797       5.15231134
H       -3.44459430       0.40008018       1.79794353
H       -4.87201669       1.83894083       3.19744457
H       -0.31331217       3.34820802       1.95472168
H        1.06645614       8.15287534       2.79637018
H       -0.41967375       9.45191762       6.66899506
H       -1.88058823       7.46485744       6.79643704
H        1.80191918      10.14236235       3.72535677
H        3.96493858      10.56427354       4.68631249
H        5.72031637      12.14972560       3.99221787
H        5.31715482      14.54600604       4.05315148
H        1.56860026      17.37839051       5.32226351
H       -0.21399258      15.79704543       5.95796303
H        0.16787037      13.39446078       5.85845490
C        1.79163083      -1.79163083       1.79163083
C        3.13478377      -1.95761662       1.47428209
C        3.93158432      -2.77306159       2.27665655
C        3.39094637      -3.41666008       3.40029671
Cl       4.46764644      -4.45837450       4.26831827
C        2.03755559      -3.23879152       3.74229657
C        1.24443466      -2.42468825       2.90868338
C        1.38723730      -3.85279138       4.89931403
N        0.11275498      -4.17767624       5.05311632
C        0.05195786      -4.67168156       6.33389286
C       -1.01507637      -5.20342550       7.07387558
C       -0.77666650      -5.64032071       8.39261785
C        0.51158598      -5.53320308       8.94038993
C        1.58929947      -5.00288141       8.21380117
C        1.29978180      -4.59253574       6.92312075
O        2.15664910      -4.04782753       6.01669315
N       -1.88135310      -6.17249554       9.09679946
C       -1.90590560      -6.62590830      10.40677287
O       -0.96448854      -6.66580733      11.18745090
C       -3.24859510      -7.08424060      10.87367749
C       -4.32117670      -6.19934140      10.68480569
C       -5.58992535      -6.54825949      11.11845655
C       -5.78978885      -7.77240832      11.75417092
C       -4.73162865      -8.68786877      11.98090597
C       -4.90975312      -9.93440807      12.64249583
Br      -6.60279839     -10.51504974      13.30681753
C       -3.84306680     -10.81322847      12.84916062
C       -2.57712239     -10.47690554      12.39754248
C       -2.37712696      -9.26152820      11.74433060
C       -3.42947856      -8.33755303      11.52737697
H        3.56866278      -1.46819439       0.60576085
H        4.97885061      -2.91350141       2.01605007
H        0.18961641      -2.28348021       3.14314524
H       -1.99451639      -5.26296830       6.61433747
H        0.72225674      -5.86479013       9.95353956
H        2.58493009      -4.92443754       8.63251507
H       -2.74730200      -6.23799479       8.57510714
H       -4.16716020      -5.22377702      10.22903063
H       -6.42525693      -5.86580856      10.98107547
H       -6.80154188      -7.99835473      12.08518985
H       -3.99100843     -11.76053883      13.36252335
H       -1.74069899     -11.15314138      12.55655865
H       -1.36408634      -9.03775718      11.41137448
C       -0.00445707       0.01189536      -1.78238275
H       -0.66409135       0.67374010      -2.43557963
H        0.65740317      -0.63156657      -2.45157240
C       -0.90989263      -0.90692880      -0.91072765
C        0.90977584       0.90977584      -0.90977584
C       -0.00465871       1.77757030       0.00794375
H       -0.66225468       2.44313916      -0.64384735
H        0.64322798       2.43503045       0.67728295
C       -1.78241447       0.00034974      -0.00472694
H       -2.45427497      -0.65498947       0.64260836
H       -2.43311707       0.67328779      -0.65473579
C       -0.91132561       0.90220522       0.91563759
C       -0.01476271      -0.02253852       1.78660255
H       -0.67934791      -0.69751639       2.42135241
H        0.63392994       0.61504881       2.47327442
C        0.01484550      -1.77751727      -0.01636693
H        0.67870853      -2.42144646      -0.68295456
H       -0.62264859      -2.45592969       0.64226336
C        1.78714474       0.01002794       0.00389507
H        2.44202412       0.67113390       0.66197326
H        2.45385902      -0.65136977      -0.64189061
C        0.91606151      -0.90478549       0.90901405
