189
Properties=species:S:1:pos:R:3 pbc="F F F"
C        0.00000000       0.00000000       0.00000000
C        0.85704717      11.31277565       2.73816178
C        1.22378147      10.08198298       1.96958799
C        1.75057629      10.16645617       0.67796137
C        2.08101295       9.00492223      -0.02996418
C        1.88915342       7.73151342       0.52292372
C        1.36610960       7.66060080       1.82026022
C        1.03713366       8.81789195       2.53637655
C        2.18834556       6.51403604      -0.24288368
N        2.64314881       6.54159586      -1.51464662
N        2.45330731       5.17137421      -1.98018946
C        3.27088807       4.70538134      -3.09428766
H        4.33636626       4.87603477      -2.89511067
O        3.12557241       3.28870391      -3.41189496
C        2.43303294       2.50986976      -2.52081341
C        2.02764525       1.25308206      -2.97106355
C        1.24537013       0.43936550      -2.15577420
C        0.88305044       0.88305044      -0.88305044
C        1.30902818       2.12370747      -0.41140626
C        2.08466241       2.94635168      -1.23386129
C        2.59148550       4.29306579      -0.83235230
H        3.64405674       4.18874425      -0.52336363
C        1.84884141       5.11919034       0.20750382
C        2.90991457       5.44064115      -4.40630131
O        3.78666617       5.91733601      -5.14324246
C        1.48833235       5.47119379      -4.91379398
C        1.23362826       6.11724382      -6.13363581
C       -0.05408620       6.14276869      -6.68405959
C       -1.10141955       5.51537473      -6.01506207
Br      -2.84177971       5.54151627      -6.75233515
C       -0.87451594       4.87482766      -4.80548678
C        0.41364841       4.85767848      -4.25585796
H        1.07184910      12.22238044       2.16783950
H        1.42926397      11.35903646       3.67018866
H       -0.21228719      11.30783292       2.97233562
H        1.90275454      11.12872924       0.19812129
H        2.47970428       9.09257352      -1.03891687
H        1.19910125       6.69530018       2.28792562
H        0.62621870       8.71841756       3.53699288
H        2.30035405       0.93120616      -3.97442251
H        0.91336270      -0.52596581      -2.52446783
H        1.02254966       2.46564795       0.57867154
H        0.76260247       4.97012338       0.17230464
H        2.21171900       4.89307265       1.21505559
H        2.04770599       6.61153244      -6.66400117
H       -0.22141131       6.65498307      -7.62642754
H       -1.68211383       4.39015322      -4.26103066
H        0.54568359       4.37213603      -3.29610931
C       -1.54263455     -11.11085337       3.22182690
C       -1.81155812      -9.90362887       2.37901053
C       -2.28051452     -10.02690686       1.06835029
C       -2.51949970      -8.88749252       0.29109287
C       -2.29121323      -7.59877248       0.79224260
C       -1.82693754      -7.48856494       2.10905231
C       -1.58958558      -8.62327311       2.89420962
C       -2.49353980      -6.40787411      -0.04385137
N       -2.88879622      -6.47677816      -1.33381692
N       -2.60981481      -5.14167520      -1.85338096
C       -3.35004709      -4.69331734      -3.02719263
H       -4.43084467      -4.80359523      -2.87307179
O       -3.12015515      -3.30246508      -3.40355105
C       -2.43269694      -2.51402615      -2.51699301
C       -1.94499354      -1.30148109      -3.00531622
C       -1.16271920      -0.48620724      -2.19158340
C       -0.88305044      -0.88305044      -0.88305044
C       -1.39150603      -2.07747682      -0.37515905
C       -2.16725867      -2.90232396      -1.19529275
C       -2.75830881      -4.20221972      -0.75637506
H       -3.81781641      -4.03334714      -0.50500106
C       -2.10713140      -5.01001056       0.35661403
C       -2.96448573      -5.50865062      -4.28372068
O       -3.82805830      -5.97937236      -5.03981399
C       -1.52384195      -5.63109553      -4.71838264
C       -1.24423397      -6.34787360      -5.89240031
C        0.06512254      -6.46112305      -6.37674157
C        1.10951974      -5.85143644      -5.68710055
Br       2.87923002      -5.99583069      -6.33547104
C        0.85785884      -5.14196385      -4.52169350
C       -0.45232278      -5.03708867      -4.03777341
H       -1.77502158     -12.03639835       2.68502988
H       -2.15966373     -11.08404626       4.12559822
H       -0.48656734     -11.14467881       3.50803604
H       -2.45728304     -11.00347561       0.62739615
H       -2.87411049      -9.00600867      -0.73107550
H       -1.63465101      -6.51027489       2.53845009
H       -1.22180340      -8.49394836       3.90810838
H       -2.15395237      -1.01707650      -4.03495384
H       -0.76645788       0.44304167      -2.58844850
H       -1.16917553      -2.38320319       0.64285264
H       -1.01440429      -4.91414712       0.36813020
H       -2.50541069      -4.71758077       1.33325540
H       -2.05586895      -6.82889492      -6.43847572
H        0.25110734      -7.02656107      -7.28454558
H        1.66189114      -4.66953344      -3.96142775
H       -0.60523510      -4.49906275      -3.10963108
C        4.06946771       2.97497524      10.52615350
C        3.09431182       3.03798009       9.39250819
C        1.75954634       3.39262647       9.60599096
C        0.85873592       3.43910605       8.53552923
C        1.25814612       3.12690865       7.22898058
C        2.59973955       2.77882050       7.02736922
C        3.50776472       2.73421085       8.09220294
C        0.29804354       3.12627732       6.11703151
N       -1.01370549       3.40426498       6.28142083
N       -1.62417628       2.94170877       5.03898593
C       -2.90482496       3.51880047       4.64693163
H       -2.85340777       4.61485480       4.63924913
O       -3.38375785       3.11248476       3.32992867
C       -2.50857329       2.43321144       2.52193137
C       -3.05512186       1.77952860       1.41714041
C       -2.24477864       0.99678902       0.59894218
C       -0.88305044       0.88305044       0.88305044
C       -0.32095816       1.55724252       1.96594122
C       -1.13607260       2.33391349       2.79488929
C       -0.64094927       3.09433283       3.98162148
H       -0.51711201       4.14959113       3.68946148
C        0.60386520       2.63682920       4.72756393
C       -4.03316022       3.10370577       5.61999104
O       -4.82700644       3.93678989       6.08344831
C       -4.30351690       1.64910576       5.92069746
C       -5.37028501       1.33647444       6.77774843
C       -5.70424166       0.00629308       7.06220734
C       -4.97052931      -1.02640166       6.48488960
Br      -5.41651304      -2.82456845       6.86012712
C       -3.90872207      -0.74149619       5.63857263
C       -3.57448515       0.59032688       5.36237283
H        3.60040035       3.25043325      11.47635714
H        4.89827658       3.66767737      10.34871098
H        4.46500705       1.95942078      10.62879638
H        1.39589457       3.62722683      10.60203024
H       -0.17899381       3.70698434       8.72521650
H        2.95338764       2.52759582       6.03226763
H        4.53765435       2.45140155       7.89389617
H       -4.12286857       1.86090505       1.22220909
H       -2.68372340       0.47143165      -0.24329034
H        0.73864761       1.46373807       2.18443561
H        0.71905020       1.54592517       4.73354624
H        1.50258458       3.09231500       4.30000564
H       -5.94983698       2.13881255       7.23459006
H       -6.53118754      -0.20436633       7.73317809
H       -3.31509957      -1.53409339       5.18806388
H       -2.72142552       0.77296423       4.71953918
C       -1.48459778       0.64205784      11.55831665
C       -0.90576613       0.06334122      10.30528381
C        0.32539431      -0.59777839      10.31589839
C        0.85608819      -1.12644536       9.13336581
C        0.18242400      -1.00484088       7.91047824
C       -1.05319635      -0.34536132       7.91428520
C       -1.59262391       0.18237099       9.09364397
C        0.76706010      -1.51513551       6.66306967
N        1.97946917      -2.10873391       6.61118821
N        2.30046560      -2.11700444       5.18740093
C        3.26243041      -3.10185846       4.70626819
H        2.97504973      -4.11368180       5.01878016
O        3.42729826      -3.14180758       3.25706544
C        2.52863983      -2.43523169       2.49984458
C        2.86998330      -2.21705167       1.16475589
C        2.05145614      -1.43421303       0.35484066
C        0.88305044      -0.88305044       0.88305044
C        0.51657305      -1.12076586       2.20680300
C        1.34389996      -1.89694862       3.02402680
C        1.05060522      -2.21165843       4.45463993
H        0.62426217      -3.22650754       4.50539490
C        0.19589375      -1.27211849       5.29251569
C        4.68099998      -2.82092898       5.25492807
O        5.37334298      -3.72294195       5.75095972
C        5.33312614      -1.47215889       5.06803509
C        6.63931094      -1.29478404       5.55041290
C        7.31939864      -0.08374614       5.36959730
C        6.69440578       0.96330595       4.69791742
Br       7.60603461       2.59993869       4.44597579
C        5.40187949       0.81277623       4.21669525
C        4.72349973      -0.39793050       4.40575463
H       -0.83818674       0.45808685      12.42266363
H       -2.45923555       0.18943074      11.76677807
H       -1.60573404       1.72500330      11.45394745
H        0.89500279      -0.70395929      11.23440041
H        1.82164222      -1.62797563       9.16157681
H       -1.60959204      -0.22625275       6.98981509
H       -2.55004471       0.69378719       9.05147527
H        3.79567092      -2.63590208       0.77440971
H        2.33835894      -1.24889433      -0.67538855
H       -0.39224634      -0.68777130       2.61400112
H        0.32593487      -0.21857472       5.01591162
H       -0.86318757      -1.53742138       5.21550225
H        7.13611288      -2.10915619       6.07797053
H        8.32693776       0.02555583       5.75861737
H        4.89159911       1.62337364       3.70084459
H        3.70553283      -0.46759662       4.04079948
