125
Properties=species:S:1:pos:R:3 pbc="F F F"
C        0.00000000       0.00000000       0.00000000
C        0.86691462       0.86691462      -0.86691462
C        2.22891709       1.01590194      -0.73794542
C        2.62805058       1.91726944      -1.75535309
C        1.48164937       2.25889790      -2.44471377
O        0.40483136       1.62156742      -1.90013249
C        1.20513277       3.14973986      -3.61273696
H        0.31809250       2.76144449      -4.13217088
N        2.30690247       3.20088210      -4.57702406
C        2.28363049       4.14627681      -5.54984922
C        2.91595965       4.27081292      -6.76002663
Br       4.15005343       3.07081719      -7.49819423
C        2.42041280       5.46363750      -7.34378004
N        1.51185598       6.04913855      -6.52198253
N        1.50791146       5.26873021      -5.42748513
C        0.59687921       5.50626362      -4.31933331
H       -0.40301849       5.26578944      -4.70146146
C        0.92066757       4.57935903      -3.13071836
C        0.63177241       6.94944325      -3.86359390
F        0.19556620       7.81747921      -4.80094172
F       -0.18691856       7.11057825      -2.78977263
F        1.86627640       7.33648528      -3.47122359
C        2.74842340       6.06347102      -8.64432703
O        3.53511640       5.59446179      -9.45905620
N        2.08773901       7.23499346      -8.89876683
H        2.85929002       0.53495296      -0.00290962
H        3.62702661       2.27534831      -1.96726492
H        2.70790000       2.28879410      -4.80168085
H        1.79658556       4.96273304      -2.58756696
H        0.08501416       4.58678977      -2.41886782
H        1.45734510       7.60446200      -8.19594954
H        2.26110785       7.72946204      -9.75964885
C       -0.86691462      -0.86691462      -0.86691462
C       -0.54924177      -1.29933705      -2.13418563
C       -1.64423502      -2.08417011      -2.57226799
C       -2.56122965      -2.08388968      -1.54014172
O       -2.08955414      -1.33705387      -0.49992326
C       -3.90533133      -2.71025964      -1.35201860
H       -4.04999725      -2.88487025      -0.27684037
N       -4.04832452      -3.99499505      -2.04148905
C       -5.28274857      -4.54746515      -2.14954280
C       -5.72865103      -5.81995126      -2.39819691
Br      -4.66519083      -7.32602177      -2.72785225
C       -7.14286657      -5.76541190      -2.31955187
N       -7.55100020      -4.50354184      -2.02843501
N       -6.41334217      -3.78796129      -2.00282335
C       -6.40111305      -2.37940584      -1.64195725
H       -6.64563633      -2.34561580      -0.57298027
C       -5.00374867      -1.76604537      -1.86095092
C       -7.43103746      -1.59110085      -2.42267124
F       -8.70215033      -1.95781779      -2.15401902
F       -7.34171633      -0.27350503      -2.09821097
F       -7.24047493      -1.67502522      -3.75848512
C       -8.12172243      -6.84842930      -2.48606972
O       -7.84518276      -8.01851877      -2.72493286
N       -9.42339321      -6.44699844      -2.35110765
H        0.35900105      -1.07854706      -2.67760659
H       -1.75605099      -2.59259413      -3.52099472
H       -3.24909254      -4.62080008      -1.92848232
H       -4.84785599      -1.56775220      -2.93127736
H       -4.94326727      -0.79511198      -1.35229251
H       -9.61806950      -5.46842101      -2.17126613
H      -10.16727732      -7.11719927      -2.46574216
C       -0.86691462       0.86691462       0.86691462
C       -0.45950976       1.50975381       2.01350089
C       -1.59179743       2.20736256       2.50151312
C       -2.61987206       1.94822560       1.61716338
O       -2.17952514       1.12601818       0.62098795
C       -4.05176751       2.37104629       1.54479578
H       -4.35121079       2.37294085       0.48755623
N       -4.28847626       3.71266951       2.08366285
C       -5.56565452       4.11824350       2.29585851
C       -6.15257592       5.34822759       2.44599569
Br      -5.27987798       7.00536929       2.43381758
C       -7.54371761       5.10901502       2.57509771
N       -7.80242480       3.77806163       2.50249063
N       -6.58709798       3.21196433       2.40506449
C       -6.42080089       1.77896202       2.22271323
H       -6.78814875       1.56470314       1.21138052
C       -4.93461374       1.37985113       2.31628009
C       -7.22483333       0.98772716       3.23224907
F       -8.55832230       1.15314104       3.10252379
F       -6.99115760      -0.34127541       3.06355013
F       -6.88463339       1.28223639       4.50711550
C       -8.63753324       6.07552093       2.74316728
O       -8.50158006       7.29270466       2.79434966
N       -9.87611186       5.50150982       2.84387762
H        0.53085812       1.48167864       2.44633207
H       -1.65630617       2.82688527       3.38644840
H       -3.60570043       4.41006390       1.78261061
H       -4.62139873       1.35539478       3.37009205
H       -4.80093213       0.36180331       1.92793632
H       -9.95140177       4.49087607       2.81547880
H      -10.68725598       6.08419682       2.97876595
C        0.86691462      -0.86691462       0.86691462
C        2.04212890      -1.46598298       0.47465257
C        2.51890273      -2.18077471       1.60099568
C        1.60378065      -1.96868715       2.61279325
O        0.59211515      -1.17016328       2.16425284
C        1.51009274      -2.42410553       4.03341130
H        0.95140204      -1.66374330       4.59656253
N        2.81590344      -2.59310948       4.67579570
C        2.88011893      -3.22493790       5.87469970
C        3.81533046      -3.25458173       6.87688701
Br       5.46590138      -2.36946151       6.88370195
C        3.26401848      -4.05568887       7.90812299
N        2.03082523      -4.49921494       7.55293688
N        1.86414620      -4.03900194       6.30097867
C        0.61990887      -4.22957147       5.57299581
H       -0.12083093      -3.60158925       6.08347408
C        0.75899493      -3.76086395       4.11088608
C        0.16732820      -5.67384120       5.60364015
F       -0.14081705      -6.11205050       6.84275369
F       -0.96318815      -5.81541041       4.86121007
F        1.08579903      -6.51326187       5.07492437
C        3.83628965      -4.40419031       9.21574149
O        4.92783397      -4.03071155       9.63008887
N        3.03388929      -5.21099128       9.97661873
H        2.50155285      -1.39724877      -0.50164903
H        3.41940832      -2.77649116       1.67374035
H        3.47048266      -1.82939013       4.49850216
H        1.30110871      -4.51876907       3.52700778
H       -0.23611948      -3.67053874       3.65625249
H        2.14487195      -5.51620114       9.59668355
H        3.34954211      -5.51729820      10.88337843
