165
Properties=species:S:1:pos:R:3 pbc="F F F"
C        0.00000000       0.00000000       0.00000000
O        4.99572155       5.20439152      -1.85547799
C        6.15386092       4.98916147      -2.22653655
C        6.50910091       3.71860766      -2.97722850
C        6.30032375       3.85457270      -4.48417772
C        4.86863573       4.18112470      -4.92028502
C        3.86849062       3.11528950      -4.50355539
O        3.62850671       2.16332865      -5.23974062
N        3.36618371       3.32692292      -3.23247692
C        2.51169122       2.48380651      -2.49785673
C        1.83457521       1.39218676      -3.04339278
C        1.01612330       0.59305619      -2.23726542
C        0.88145280       0.88145280      -0.88145280
C        1.54763097       1.96925138      -0.32487440
C        2.35337953       2.77282533      -1.13548854
N        7.15804237       5.89581045      -1.99923383
N        8.40678025       5.70754878      -2.49265770
C        9.34082391       6.42256611      -1.95460764
C       10.73770469       6.28315672      -2.40385040
C       11.76967764       6.60230666      -1.51822162
C       13.09693382       6.41729672      -1.91332959
C       13.38066120       5.93439831      -3.19232235
Br      15.17777801       5.67795403      -3.71894797
C       12.35090073       5.63110887      -4.08255478
C       11.02369210       5.79866615      -3.68497828
H        5.91346740       2.89839586      -2.56193793
H        7.54853025       3.43791983      -2.77301204
H        6.61063220       2.91383650      -4.95591348
H        6.96468982       4.63608209      -4.87289379
H        4.83266161       4.25524029      -6.01404718
H        4.55194750       5.15967200      -4.54277791
H        3.73950900       4.12628932      -2.71759720
H        1.91326693       1.14422667      -4.09759472
H        0.49332686      -0.24965734      -2.68166473
H        1.45328348       2.19893269       0.73278566
H        2.87515910       3.61447276      -0.68441403
H        6.93293473       6.72483160      -1.45983464
H        9.14454742       7.11920109      -1.11946702
H       11.55561147       6.96027837      -0.51467067
H       13.90115072       6.64031728      -1.21651798
H       12.56853210       5.25641300      -5.07958111
H       10.21989619       5.55058715      -4.37500535
O       -4.53571783      -1.93802271      -5.58185053
C       -4.20672245      -2.57593808      -6.58689841
C       -3.08077252      -3.59242008      -6.53174446
C       -3.56475655      -4.97505774      -6.09925989
C       -4.21795350      -5.03704578      -4.71504617
C       -3.27736555      -4.60962900      -3.60034096
O       -2.55770194      -5.43188968      -3.04198435
N       -3.30026979      -3.24430475      -3.38100901
C       -2.48194827      -2.50319391      -2.50821227
C       -1.66326005      -3.07413419      -1.53276051
C       -0.86599334      -2.26420528      -0.71624629
C       -0.88145280      -0.88145280      -0.88145280
C       -1.69602914      -0.29824529      -1.84748231
C       -2.50070905      -1.10905120      -2.65193315
N       -4.85791582      -2.41197681      -7.78319401
N       -4.56497611      -3.18204486      -8.85996576
C       -4.97849451      -2.73739973     -10.00210343
C       -4.69768598      -3.48769310     -11.23933274
C       -4.64023546      -2.79755439     -12.45241608
C       -4.31617872      -3.48897989     -13.62240153
C       -4.07165946      -4.86276312     -13.57295927
Br      -3.62541089      -5.79194629     -15.15732283
C       -4.14495830      -5.55505862     -12.36454746
C       -4.45169374      -4.86428131     -11.19136148
H       -2.30698994      -3.20909722      -5.85771403
H       -2.58823463      -3.66310534      -7.50812216
H       -2.70522846      -5.65671318      -6.11844054
H       -4.28383821      -5.35395545      -6.83587204
H       -4.52563996      -6.06914025      -4.50716887
H       -5.13479484      -4.43818968      -4.68141288
H       -3.89664595      -2.68939998      -3.99734959
H       -1.63290871      -4.14790321      -1.37427641
H       -0.23888466      -2.72732276       0.04087316
H       -1.71076746       0.77898951      -1.98765256
H       -3.12556282      -0.63948068      -3.40900239
H       -5.58099751      -1.70243112      -7.83417234
H       -5.50697850      -1.77220547     -10.10403155
H       -4.81047758      -1.72504177     -12.49504117
H       -4.24528717      -2.94920088     -14.56349793
H       -3.95663497      -6.62493092     -12.32296032
H       -4.49697270      -5.40194733     -10.24656865
O       -3.37578584       6.13158954       2.54821568
C       -4.56662740       6.41632479       2.38660675
C       -5.61809260       5.32920512       2.25763934
C       -6.15322134       4.87248098       3.61337185
C       -5.10579434       4.29426223       4.56998888
C       -4.41489656       3.06121868       4.01122028
O       -4.87762039       1.94248050       4.21147509
N       -3.31202538       3.37543756       3.23812061
C       -2.51341850       2.49329725       2.48663870
C       -2.56957858       1.10321924       2.59735693
C       -1.75128658       0.29666976       1.79848857
C       -0.88145280       0.88145280       0.88145280
C       -0.81211306       2.26640615       0.76323754
C       -1.62094130       3.06889092       1.57186118
N       -4.99072839       7.72024873       2.34210953
N       -6.30748736       8.03411870       2.26538067
C       -6.57963706       9.24325675       1.89510385
C       -7.97981406       9.68379855       1.76109921
C       -8.28114037      10.72684293       0.88222262
C       -9.61197361      11.11250861       0.70307792
C      -10.62468660      10.46721278       1.41548247
Br     -12.42433571      10.98715393       1.16319036
C      -10.32255743       9.43673159       2.30527536
C       -8.99591065       9.03767198       2.47375390
H       -5.18091399       4.49564435       1.69724285
H       -6.44764787       5.67898901       1.63282525
H       -6.92849268       4.11686359       3.43502590
H       -6.64497750       5.71683195       4.11185625
H       -5.59562904       4.00005746       5.50626257
H       -4.36038699       5.04843630       4.84557411
H       -3.11421391       4.36817601       3.10100560
H       -3.23207378       0.61636693       3.30664760
H       -1.80610201      -0.78364131       1.90287355
H       -0.14081218       2.73171832       0.04690002
H       -1.56232094       4.14988640       1.46183856
H       -4.28552456       8.44814974       2.38392667
H       -5.79207868       9.96891096       1.62222588
H       -7.49991659      11.22040647       0.31023746
H       -9.85141403      11.90652604       0.00004590
H      -11.10859151       8.93335678       2.86257792
H       -8.76116239       8.22559545       3.15873083
O        2.60047156      -3.30917532       6.14594418
C        2.42224813      -4.49128369       6.45602713
C        2.25336496      -5.56007038       5.39150172
C        3.59010733      -6.12903082       4.91993602
C        4.55487267      -5.11071046       4.30446233
C        3.98583454      -4.43233838       3.06916259
O        4.15635892      -4.91938268       1.95583437
N        3.23934219      -3.30945809       3.37678326
C        2.48626862      -2.51328592       2.49379992
C        2.56969569      -2.59724198       1.10321707
C        1.77104198      -1.77909893       0.29630400
C        0.88145280      -0.88145280       0.88145280
C        0.79067861      -0.78427514       2.26680300
C        1.59918270      -1.59321693       3.06929377
N        2.39450558      -4.89026431       7.76831677
N        2.29935147      -6.19930751       8.10832775
C        1.94696799      -6.44200088       9.32902879
C        1.79540288      -7.83100846       9.79830047
C        0.93092513      -8.09635154      10.86292926
C        0.73448433      -9.41620400      11.27687181
C        1.41572820     -10.45394065      10.63771300
Br       1.14002069     -12.23858076      11.19607856
C        2.29137022     -10.18776832       9.58542584
C        2.47681852      -8.87214762       9.15837039
H        1.68553680      -5.12790451       4.56035988
H        1.62001146      -6.37107988       5.76837079
H        3.38322593      -6.91465344       4.18250280
H        4.09523836      -6.61438798       5.76403936
H        5.47620564      -5.62347490       4.00226853
H        4.85837944      -4.35680178       5.03921617
H        3.12465652      -3.09075633       4.36798267
H        3.25729646      -3.28189191       0.61589995
H        1.85400426      -1.85585819      -0.78452820
H        0.09579023      -0.09108839       2.73255189
H        1.51066807      -1.51253509       4.15084273
H        2.46308635      -4.17262315       8.48189147
H        1.70244540      -5.63614123      10.04462890
H        0.38290593      -7.29547948      11.35217510
H        0.04223917      -9.62760777      12.08813903
H        2.82443789     -10.99335371       9.08673461
H        3.15058750      -8.66542815       8.32947303
