173
Properties=species:S:1:pos:R:3 pbc="F F F"
C        0.00000000       0.00000000       0.00000000
O        4.99572155       5.20439152      -1.85547799
C        6.15386092       4.98916147      -2.22653655
C        6.50910091       3.71860766      -2.97722850
C        6.30032375       3.85457270      -4.48417772
C        4.86863573       4.18112470      -4.92028502
C        3.86849062       3.11528950      -4.50355539
O        3.62850671       2.16332865      -5.23974062
N        3.36618371       3.32692292      -3.23247692
C        2.51169122       2.48380651      -2.49785673
C        1.83457521       1.39218676      -3.04339278
C        1.01612330       0.59305619      -2.23726542
C        0.88145280       0.88145280      -0.88145280
C        1.54763097       1.96925138      -0.32487440
C        2.35337953       2.77282533      -1.13548854
N        7.15804237       5.89581045      -1.99923383
N        8.40678025       5.70754878      -2.49265770
C        9.34082391       6.42256611      -1.95460764
C       10.73770469       6.28315672      -2.40385040
C       11.76967764       6.60230666      -1.51822162
C       13.09693382       6.41729672      -1.91332959
C       13.38066120       5.93439831      -3.19232235
C       12.35090073       5.63110887      -4.08255478
C       11.02369210       5.79866615      -3.68497828
H        5.91346740       2.89839586      -2.56193793
H        7.54853025       3.43791983      -2.77301204
H        6.61063220       2.91383650      -4.95591348
H        6.96468982       4.63608209      -4.87289379
H        4.83266161       4.25524029      -6.01404718
H        4.55194750       5.15967200      -4.54277791
H        3.73950900       4.12628932      -2.71759720
H        1.91326693       1.14422667      -4.09759472
H        0.49332686      -0.24965734      -2.68166473
H        1.45328348       2.19893269       0.73278566
H        2.87515910       3.61447276      -0.68441403
H        6.93293473       6.72483160      -1.45983464
H        9.14454742       7.11920109      -1.11946702
H       11.55561147       6.96027837      -0.51467067
H       13.90115072       6.64031728      -1.21651798
H       12.56853210       5.25641300      -5.07958111
H       10.21989619       5.55058715      -4.37500535
C       14.74977289       5.73902934      -3.59352570
C       15.89640394       5.57540783      -3.92953351
Br      17.75040936       5.31084569      -4.47282972
O       -4.61605248      -1.91638139      -5.52315720
C       -4.29575428      -2.52459879      -6.54920587
C       -3.14685486      -3.51657246      -6.54150974
C       -3.59062724      -4.91884503      -6.12960191
C       -4.21114383      -5.02575449      -4.73314714
C       -3.25541477      -4.60190000      -3.63002074
O       -2.50558675      -5.41987024      -3.10611899
N       -3.30330405      -3.24256356      -3.37971594
C       -2.48207110      -2.50260815      -2.50867521
C       -1.62943089      -3.07630035      -1.56442350
C       -0.83201047      -2.26679929      -0.74763514
C       -0.88145280      -0.88145280      -0.88145280
C       -1.73004084      -0.29561370      -1.81610221
C       -2.53458143      -1.10642162      -2.62069036
N       -4.97701281      -2.34909672      -7.72697712
N       -4.69146403      -3.08863828      -8.82688442
C       -5.14009991      -2.62845336      -9.94944439
C       -4.87070327      -3.34498670     -11.20902185
C       -4.85556810      -2.62732642     -12.40731140
C       -4.54272799      -3.28552520     -13.59930694
C       -4.26712752      -4.65424075     -13.58601358
C       -4.29816061      -5.37430937     -12.39209440
C       -4.59360204      -4.71644064     -11.19729385
H       -2.36675305      -3.13087278      -5.87617536
H       -2.67487797      -3.55480341      -7.52978075
H       -2.71701840      -5.58049510      -6.18286868
H       -4.31755354      -5.29752570      -6.85858646
H       -4.49141458      -6.06878723      -4.54174727
H       -5.13990030      -4.44846333      -4.66603376
H       -3.92534713      -2.68778657      -3.97026182
H       -1.57202310      -4.15233426      -1.43073096
H       -0.17810765      -2.73222961      -0.01499699
H       -1.77150902       0.78383279      -1.93175428
H       -3.18637068      -0.63449201      -3.35318320
H       -5.71642451      -1.65497724      -7.74619922
H       -5.69175075      -1.67333637     -10.01812841
H       -5.05017562      -1.55821938     -12.42216551
H       -4.50477302      -2.72380790     -14.52940506
H       -4.08556184      -6.44034969     -12.37861468
H       -4.60592049      -5.27555333     -10.26401486
C       -3.93885192      -5.32772506     -14.81575096
C       -3.66392110      -5.89176818     -15.84565601
Br      -3.21938122      -6.80377819     -17.51092536
O       -3.10445642       6.17654765       2.77458699
C       -4.25399526       6.56725629       2.54830739
C       -5.36958949       5.58072820       2.25461937
C       -6.04437089       5.06896625       3.52573704
C       -5.12307049       4.33896500       4.50800997
C       -4.48308637       3.09935721       3.90489193
O       -5.04227604       2.00962991       3.97967003
N       -3.30137440       3.38055004       3.24365911
C       -2.51276268       2.49540872       2.48518306
C       -2.68080694       1.10996408       2.47938372
C       -1.86320259       0.30190027       1.68134205
C       -0.88145280       0.88145280       0.88145280
C       -0.70008666       2.26130199       0.88036810
C       -1.50936999       3.06384008       1.68848333
N       -4.57505083       7.90072600       2.57730982
N       -5.85440417       8.32420119       2.42838137
C       -6.00529402       9.57546249       2.13724116
C       -7.35354702      10.13580762       1.93535718
C       -7.50492362      11.26212212       1.12316019
C       -8.78470196      11.76570511       0.87715306
C       -9.89653064      11.15269270       1.45815852
C       -9.74429916      10.03798999       2.28227523
C       -8.46882081       9.52222270       2.51629303
H       -4.95197532       4.75870780       1.66311807
H       -6.11796384       6.04149992       1.59999838
H       -6.85682250       4.39342998       3.23012970
H       -6.51045869       5.91069877       4.05250824
H       -5.70705061       4.01628613       5.37861233
H       -4.34822287       5.00823794       4.89793660
H       -3.01994389       4.36162420       3.20182742
H       -3.43249438       0.62653849       3.09605546
H       -2.00637605      -0.77527573       1.69423393
H        0.05931857       2.72313322       0.25561587
H       -1.36191066       4.14180973       1.67032550
H       -3.82333735       8.56448998       2.72977365
H       -5.14660537      10.25376860       1.98284155
H       -6.64575309      11.73247392       0.65233351
H       -8.90720225      12.62644612       0.22433761
H      -10.60780079       9.55936370       2.73736172
H       -8.35087632       8.64525012       3.14936223
C      -11.21444936      11.67085924       1.19701934
C      -12.31820629      12.10482372       0.97831527
Br     -14.10288790      12.80650758       0.62468930
O        2.87441539      -2.99740450       6.18377118
C        2.62495941      -4.12618982       6.61840971
C        2.26462511      -5.26208465       5.67822730
C        3.49670886      -5.99339983       5.14896548
C        4.48324137      -5.12774779       4.35905630
C        3.86066639      -4.50776727       3.11890185
O        3.88253519      -5.10299381       2.04604698
N        3.24628199      -3.29702156       3.38228000
C        2.48464908      -2.51241386       2.49629151
C        2.42871515      -2.72355957       1.11788003
C        1.63096257      -1.90628950       0.30919284
C        0.88145280      -0.88145280       0.88145280
C        0.93074637      -0.65695134       2.25405903
C        1.73864435      -1.46640843       3.05664063
N        2.68704695      -4.40602842       7.96001128
N        2.51185248      -5.66597347       8.42916078
C        2.25679849      -5.76803004       9.69316914
C        2.03097370      -7.09079617      10.30294194
C        1.25133102      -7.18038349      11.45849141
C        0.98173764      -8.43509620      12.01072629
C        1.50742211      -9.58384033      11.41611941
C        2.29937526      -9.49342079      10.27176832
C        2.55646202      -8.24299761       9.70787690
H        1.66020352      -4.85152482       4.86207285
H        1.60211658      -5.97404334       6.18330221
H        3.15403830      -6.81664262       4.50970124
H        4.03558401      -6.44966929       5.98841240
H        5.32418914      -5.74945156       4.02830838
H        4.91875285      -4.34532185       4.99032270
H        3.24509420      -2.98374708       4.35455425
H        3.00552374      -3.50961877       0.63994581
H        1.60446462      -2.08352492      -0.76265529
H        0.34540825       0.13640211       2.71042437
H        1.76004183      -1.28469606       4.12930800
H        2.88443301      -3.63919542       8.59397255
H        2.15145985      -4.88393639      10.34781928
H        0.82316740      -6.29208396      11.91530915
H        0.35361936      -8.50932912      12.89503750
H        2.71141087     -10.38579681       9.80731853
H        3.16418555      -8.17318553       8.80811760
C        1.22198794     -10.87570710      11.98463290
C        0.98293682     -11.95764552      12.46076294
Br       0.59641138     -13.70704844      13.23062496
