194
Properties=species:S:1:pos:R:3 pbc="F F F"
O        5.90562558       6.11429555      -2.76538201
C        7.06376495       5.89906550      -3.13644057
C        7.41900493       4.62851168      -3.88713252
C        7.21022778       4.76447673      -5.39408174
C        5.77853976       5.09102873      -5.83018905
C        4.77839464       4.02519353      -5.41345942
O        4.53841073       3.07323267      -6.14964465
N        4.27608773       4.23682695      -4.14238094
C        3.42159524       3.39371053      -3.40776075
C        2.74447923       2.30209079      -3.95329680
C        1.92602732       1.50296022      -3.14716944
C        1.79135683       1.79135683      -1.79135683
C        2.45753499       2.87915541      -1.23477842
C        3.26328355       3.68272936      -2.04539256
N        8.06794639       6.80571448      -2.90913785
N        9.31668428       6.61745281      -3.40256172
C       10.25072794       7.33247014      -2.86451166
C       11.64760871       7.19306075      -3.31375443
C       12.67958167       7.51221068      -2.42812565
C       14.00683784       7.32720075      -2.82323362
C       14.29056522       6.84430233      -4.10222637
C       13.26080475       6.54101289      -4.99245881
C       11.93359612       6.70857018      -4.59488230
H        6.82337142       3.80829989      -3.47184195
H        8.45843428       4.34782386      -3.68291607
H        7.52053623       3.82374052      -5.86581750
H        7.87459385       5.54598611      -5.78279782
H        5.74256563       5.16514432      -6.92395120
H        5.46185152       6.06957602      -5.45268193
H        4.64941302       5.03619335      -3.62750122
H        2.82317096       2.05413069      -5.00749874
H        1.40323088       0.66024669      -3.59156876
H        2.36318751       3.10883671      -0.17711837
H        3.78506313       4.52437679      -1.59431805
H        7.84283875       7.63473563      -2.36973867
H       10.05445144       8.02910512      -2.02937104
H       12.46551550       7.87018240      -1.42457469
H       14.81105474       7.55022130      -2.12642201
H       13.47843613       6.16631702      -5.98948513
H       11.12980021       6.46049117      -5.28490937
C       15.65967692       6.64893337      -4.50342973
C       16.80630796       6.48531186      -4.83943754
Br      18.66031339       6.22074972      -5.38273374
O       -6.35521266      -5.62685622      -2.80323426
C       -7.40671933      -5.31923263      -3.37331906
C       -7.45928051      -4.14347336      -4.33189526
C       -7.07543607      -4.53617676      -5.75717342
C       -5.66590961      -5.11333514      -5.92051278
C       -4.57809564      -4.13862204      -5.50032990
O       -4.09880564      -3.35170252      -6.31077990
N       -4.28782396      -4.21707820      -4.15039345
C       -3.41914484      -3.39216476      -3.41175692
C       -2.51571545      -2.49729044      -3.98686093
C       -1.69859733      -1.69965223      -3.17790742
C       -1.79135683      -1.79135683      -1.79135683
C       -2.68495706      -2.68224526      -1.20426650
C       -3.48972423      -3.48661312      -2.01506812
N       -8.55961907      -6.03847305      -3.18470660
N       -9.68771238      -5.76403382      -3.88495260
C      -10.78377263      -6.25716614      -3.40677097
C      -12.07030334      -6.00406696      -4.08005359
C      -13.24755847      -6.04311156      -3.32924797
C      -14.46610101      -5.74629290      -3.94487831
C      -14.49957657      -5.43251501      -5.30500235
C      -13.32631557      -5.40941368      -6.05854720
C      -12.10546294      -5.68875817      -5.44282749
H       -6.80512285      -3.35569575      -3.94269467
H       -8.46096822      -3.69904380      -4.32916218
H       -7.17182829      -3.64640596      -6.39185999
H       -7.79446979      -5.27283450      -6.13607349
H       -5.49667602      -5.35894456      -6.97604057
H       -5.55656012      -6.05547109      -5.37207826
H       -4.84477373      -4.87090797      -3.59742589
H       -2.41446532      -2.40622153      -5.06411354
H       -0.99800046      -1.01241015      -3.64463572
H       -2.76852628      -2.75696659      -0.12364971
H       -4.19004892      -4.17191968      -1.54178936
H       -8.53845788      -6.79712610      -2.51172906
H      -10.80979264      -6.83686982      -2.46626514
H      -13.22645167      -6.26768368      -2.26613723
H      -15.38046672      -5.75054235      -3.35668898
H      -13.34920776      -5.16698903      -7.11804149
H      -11.18855653      -5.65887402      -6.02777021
C      -15.75669639      -5.12092681      -5.93441681
C      -16.80953424      -4.85997170      -6.46155142
Br     -18.51188399      -4.43802936      -7.31388350
O       -5.01092383       3.01238858       6.76199073
C       -4.65494525       3.80146027       7.64286549
C       -3.67570336       4.92057197       7.33837381
C       -4.37081555       6.17797813       6.81999256
C       -5.17433929       5.99699489       5.52842334
C       -4.31606037       5.54109927       4.35988794
O       -3.76873252       6.36213510       3.63042044
N       -4.19443323       4.16492387       4.29593852
C       -3.39159334       3.41604359       3.41542960
C       -2.76131569       3.94864864       2.28990249
C       -1.96459704       3.13652123       1.47503871
C       -1.79135683       1.79135683       1.79135683
C       -2.41709935       1.24594177       2.90842770
C       -3.22255923       2.05663561       3.71221063
N       -5.14597942       3.71582571       8.92099359
N       -4.83399105       4.64013019       9.86257756
C       -5.06194785       4.29701447      11.08874741
C       -4.74191127       5.22025862      12.19225400
C       -4.46732197       4.69534162      13.45725441
C       -4.10474093       5.55697477      14.49555651
C       -4.03827003       6.93264921      14.26617468
C       -4.32824482       7.45853310      13.00749853
C       -4.67417207       6.59904227      11.96383426
H       -2.93910872       4.54419752       6.62020702
H       -3.09166340       5.16455804       8.23295276
H       -3.60494732       6.94682152       6.65832541
H       -5.04605735       6.56369167       7.59362875
H       -5.62776694       6.95564448       5.24824973
H       -6.00852261       5.30175862       5.67382824
H       -4.64675454       3.62823517       5.03811788
H       -2.88105660       4.99151785       2.01222594
H       -1.48607421       3.56869762       0.60027449
H       -2.28353812       0.19910773       3.16649674
H       -3.69806833       1.61833531       4.58735432
H       -5.76614653       2.94306561       9.13810091
H       -5.45309679       3.29969920      11.36013161
H       -4.49840343       3.62411105      13.63775811
H       -3.86521640       5.14831615      15.47416550
H       -4.27889054       8.52926803      12.82607972
H       -4.88857906       7.00796695      10.97865475
C       -3.65796522       7.81682622      15.33724857
C       -3.33945995       8.55732446      16.23427295
Br      -2.82446385       9.75464748      17.68468551
O        2.87109851      -5.36930192       6.54490270
C        3.03829825      -6.59068325       6.47028952
C        3.51723197      -7.23523392       5.18218325
C        5.04054512      -7.25588088       5.07236025
C        5.71791871      -5.88220781       5.09963101
C        5.27719838      -4.98543720       3.95441200
O        5.87596255      -5.00189486       2.88343065
N        4.13910295      -4.25992723       4.25626544
C        3.40357242      -3.42322609       3.39626802
C        3.85410088      -3.00113330       2.14463264
C        3.05081283      -2.18199388       1.34335027
C        1.79135683      -1.79135683       1.79135683
C        1.33093830      -2.20150816       3.03902236
C        2.14108951      -3.00834440       3.84197156
N        2.82347224      -7.40940771       7.54991877
N        3.10202774      -8.73534259       7.49932847
C        2.56234051      -9.46189725       8.42347198
C        2.78508146     -10.91866640       8.45067604
C        1.82824392     -11.73963081       9.05204327
C        2.00037666     -13.12594725       9.03094831
C        3.13268050     -13.67677871       8.42763472
C        4.09627207     -12.85652086       7.84148352
C        3.91890085     -11.47227181       7.84587594
H        3.06151973      -6.69987727       4.34211627
H        3.12822925      -8.25675136       5.10419359
H        5.30643934      -7.76572837       4.13792653
H        5.45450905      -7.85946639       5.88940233
H        6.80356601      -6.01350949       5.01458565
H        5.55108660      -5.37610954       6.05691334
H        3.71342672      -4.43066867       5.16901220
H        4.83315662      -3.28273518       1.76890858
H        3.42134476      -1.85983040       0.37387116
H        0.34772095      -1.90658506       3.39483657
H        1.76400417      -3.32858358       4.81117022
H        2.46160238      -6.98736383       8.39834683
H        1.88612204      -9.03859360       9.18821195
H        0.93522273     -11.31868943       9.50636044
H        1.24407287     -13.76821444       9.47541074
H        4.97972168     -13.28221026       7.37230634
H        4.66446841     -10.83279405       7.37793829
C        3.30329185     -15.10641214       8.40233601
C        3.44617886     -16.30373014       8.38114835
Br       3.67721508     -18.23969207       8.34688969
C       -0.00445707       0.01189536      -1.78238275
H       -0.66409135       0.67374010      -2.43557963
H        0.65740317      -0.63156657      -2.45157240
C       -0.90989263      -0.90692880      -0.91072765
C        0.90977584       0.90977584      -0.90977584
C       -0.00465871       1.77757030       0.00794375
H       -0.66225468       2.44313916      -0.64384735
H        0.64322798       2.43503045       0.67728295
C       -1.78241447       0.00034974      -0.00472694
H       -2.45427497      -0.65498947       0.64260836
H       -2.43311707       0.67328779      -0.65473579
C       -0.91132561       0.90220522       0.91563759
C       -0.01476271      -0.02253852       1.78660255
H       -0.67934791      -0.69751639       2.42135241
H        0.63392994       0.61504881       2.47327442
C        0.01484550      -1.77751727      -0.01636693
H        0.67870853      -2.42144646      -0.68295456
H       -0.62264859      -2.45592969       0.64226336
C        1.78714474       0.01002794       0.00389507
H        2.44202412       0.67113390       0.66197326
H        2.45385902      -0.65136977      -0.64189061
C        0.91606151      -0.90478549       0.90901405
