186
Properties=species:S:1:pos:R:3 pbc="F F F"
O        5.90562558       6.11429555      -2.76538201
C        7.06376495       5.89906550      -3.13644057
C        7.41900493       4.62851168      -3.88713252
C        7.21022778       4.76447673      -5.39408174
C        5.77853976       5.09102873      -5.83018905
C        4.77839464       4.02519353      -5.41345942
O        4.53841073       3.07323267      -6.14964465
N        4.27608773       4.23682695      -4.14238094
C        3.42159524       3.39371053      -3.40776075
C        2.74447923       2.30209079      -3.95329680
C        1.92602732       1.50296022      -3.14716944
C        1.79135683       1.79135683      -1.79135683
C        2.45753499       2.87915541      -1.23477842
C        3.26328355       3.68272936      -2.04539256
N        8.06794639       6.80571448      -2.90913785
N        9.31668428       6.61745281      -3.40256172
C       10.25072794       7.33247014      -2.86451166
C       11.64760871       7.19306075      -3.31375443
C       12.67958167       7.51221068      -2.42812565
C       14.00683784       7.32720075      -2.82323362
C       14.29056522       6.84430233      -4.10222637
Br      16.08768203       6.58785806      -4.62885199
C       13.26080475       6.54101289      -4.99245881
C       11.93359612       6.70857018      -4.59488230
H        6.82337142       3.80829989      -3.47184195
H        8.45843428       4.34782386      -3.68291607
H        7.52053623       3.82374052      -5.86581750
H        7.87459385       5.54598611      -5.78279782
H        5.74256563       5.16514432      -6.92395120
H        5.46185152       6.06957602      -5.45268193
H        4.64941302       5.03619335      -3.62750122
H        2.82317096       2.05413069      -5.00749874
H        1.40323088       0.66024669      -3.59156876
H        2.36318751       3.10883671      -0.17711837
H        3.78506313       4.52437679      -1.59431805
H        7.84283875       7.63473563      -2.36973867
H       10.05445144       8.02910512      -2.02937104
H       12.46551550       7.87018240      -1.42457469
H       14.81105474       7.55022130      -2.12642201
H       13.47843613       6.16631702      -5.98948513
H       11.12980021       6.46049117      -5.28490937
O       -5.55210380      -2.81986380      -6.41333554
C       -5.23490014      -3.41828975      -7.44608112
C       -4.07882708      -4.40189248      -7.45392957
C       -4.50942650      -5.81030640      -7.04905335
C       -5.11895801      -5.93183821      -5.64896131
C       -4.15830582      -5.50902226      -4.54971951
O       -3.39877962      -6.32527496      -4.03723348
N       -4.21420457      -4.15191785      -4.28917320
C       -3.39202043      -3.41231857      -3.41872753
C       -2.52839121      -3.98659846      -2.48487715
C       -1.73091703      -3.17723819      -1.66800176
C       -1.79135683      -1.79135683      -1.79135683
C       -2.65095200      -1.20497063      -2.71554619
C       -3.45544758      -2.01577787      -3.52018002
N       -5.92597745      -3.23923999      -8.61758128
N       -5.64310945      -3.96870201      -9.72488735
C       -6.10323397      -3.50368836     -10.84078741
C       -5.83784757      -4.20910568     -12.10747064
C       -5.83664066      -3.48270185     -13.30057549
C       -5.52774260      -4.12996007     -14.49956954
C       -5.24215543      -5.49669077     -14.49824772
Br      -4.81664727      -6.36584855     -16.12189626
C       -5.25927386      -6.22558708     -13.30941551
C       -5.55075132      -5.57855237     -12.10774491
H       -3.29670782      -4.01534152      -6.79146392
H       -3.61380192      -4.42952984      -8.44584244
H       -3.63146415      -6.46516840      -7.11346170
H       -5.23888779      -6.18899055      -7.77549944
H       -5.39027125      -6.97824383      -5.46314607
H       -6.05135372      -5.36183284      -5.57092292
H       -4.84453380      -3.59743086      -4.87114293
H       -2.46222553      -5.06312460      -2.35945026
H       -1.06834056      -3.64317922      -0.94352655
H       -2.70107211      -0.12504645      -2.82302403
H       -4.11595657      -1.54332355      -4.24447784
H       -6.67051307      -2.55040759      -8.62639239
H       -6.66226779      -2.55214570     -10.89851411
H       -6.03908248      -2.41496221     -13.30622790
H       -5.50063380      -3.56126535     -15.42579890
H       -5.03887394      -7.29011909     -13.30524526
H       -5.55222061      -6.14447877     -11.17850137
O       -3.16813996       6.90220177       4.71496141
C       -4.05130518       7.68879437       4.35917146
C       -5.21257197       7.22143880       3.50063837
C       -6.36716491       6.66809725       4.33352409
C       -6.02085042       5.46401524       5.21489187
C       -5.53705792       4.26698646       4.41300321
O       -6.33466684       3.43518738       3.99143384
N       -4.17341478       4.29753774       4.18434310
C       -3.41784209       3.41343242       3.39179201
C       -3.90267495       2.20306041       2.89413145
C       -3.08915850       1.38947472       2.09752376
C       -1.79135683       1.79135683       1.79135683
C       -1.29344459       2.99392270       2.28410153
C       -2.10396859       3.79732032       3.09011656
N       -4.03367697       9.00562483       4.74349691
N       -5.05287511       9.84592343       4.43790027
C       -4.79500880      11.10905788       4.54364305
C       -5.82701345      12.10969233       4.21771812
C       -5.42965470      13.38403384       3.80622946
C       -6.39831258      14.32104658       3.43791305
C       -7.75167436      13.98363460       3.50178497
Br      -9.05783612      15.25217920       2.99437676
C       -8.14934822      12.71676400       3.92816423
C       -7.18363971      11.77289755       4.28051134
H       -4.83546260       6.47592002       2.79213065
H       -5.57241166       8.04420121       2.87256132
H       -7.17589941       6.38662403       3.64757081
H       -6.76273387       7.46301278       4.97763112
H       -6.91631637       5.15020846       5.76513632
H       -5.27876829       5.72935272       5.97598846
H       -3.66660642       5.11269396       4.53380721
H       -4.90727143       1.85805827       3.11947070
H       -3.48323580       0.44831738       1.72349314
H       -0.28434829       3.31860817       2.04618613
H       -1.70406445       4.73907118       3.46062234
H       -3.23660421       9.33056502       5.28014381
H       -3.79653785      11.48617344       4.83021630
H       -4.37751677      13.64695596       3.73579986
H       -6.09039876      15.30485907       3.09244021
H       -9.20230035      12.45147451       3.98046343
H       -7.49317941      10.78047972       4.60154163
O        3.52205917      -4.20453964       7.05870433
C        3.34027079      -5.38462422       7.37437601
C        3.16263117      -6.45705998       6.31495798
C        4.49507944      -7.03344300       5.84026380
C        5.46146882      -6.02163119       5.21665752
C        4.89013743      -5.34599099       3.98091917
O        5.05408256      -5.83829060       2.86891489
N        4.14952440      -4.21879777       4.28697345
C        3.39609293      -3.42315863       3.40381498
C        3.47345315      -3.51315451       2.01325916
C        2.67484531      -2.69504564       1.20626603
C        1.79135683      -1.79135683       1.79135683
C        1.70668225      -1.68813078       3.17665579
C        2.51515981      -2.49709720       3.97914847
N        3.31629317      -5.77810679       8.68839877
N        3.21717574      -7.08534320       9.03417986
C        2.86882622      -7.32158075      10.25730277
C        2.71350291      -8.70801845      10.73290253
C        1.85233279      -8.96543786      11.80214734
C        1.65219027     -10.28276368      12.22231826
C        2.32654072     -11.32590475      11.58464846
Br       2.04582255     -13.10709246      12.15147708
C        3.19892908     -11.06765145      10.52769591
C        3.38800800      -9.75456582      10.09447477
H        2.59316375      -6.02597077       5.48437875
H        2.52751579      -7.26390569       6.69775272
H        4.28194830      -7.82122285       5.10692309
H        5.00168617      -7.51741154       6.68428007
H        6.37944184      -6.53941597       4.91280333
H        5.77108275      -5.26597328       5.94705345
H        4.03981501      -3.99556633       5.27772625
H        4.15623192      -4.20261878       1.52594970
H        2.75304468      -2.77657371       0.12542794
H        1.01656224      -0.99018823       3.64239211
H        2.43142721      -2.41162083       5.06070992
H        3.39074930      -5.05783600       9.39872775
H        2.63055407      -6.51179641      10.97057712
H        1.30961740      -8.16031983      12.29033536
H        0.96242844     -10.48799150      13.03727811
H        3.72663502     -11.87745993      10.03014333
H        4.05920225      -9.55401845       9.26198006
C       -0.00445707       0.01189536      -1.78238275
H       -0.66409135       0.67374010      -2.43557963
H        0.65740317      -0.63156657      -2.45157240
C       -0.90989263      -0.90692880      -0.91072765
C        0.90977584       0.90977584      -0.90977584
C       -0.00465871       1.77757030       0.00794375
H       -0.66225468       2.44313916      -0.64384735
H        0.64322798       2.43503045       0.67728295
C       -1.78241447       0.00034974      -0.00472694
H       -2.45427497      -0.65498947       0.64260836
H       -2.43311707       0.67328779      -0.65473579
C       -0.91132561       0.90220522       0.91563759
C       -0.01476271      -0.02253852       1.78660255
H       -0.67934791      -0.69751639       2.42135241
H        0.63392994       0.61504881       2.47327442
C        0.01484550      -1.77751727      -0.01636693
H        0.67870853      -2.42144646      -0.68295456
H       -0.62264859      -2.45592969       0.64226336
C        1.78714474       0.01002794       0.00389507
H        2.44202412       0.67113390       0.66197326
H        2.45385902      -0.65136977      -0.64189061
C        0.91606151      -0.90478549       0.90901405
