157
Properties=species:S:1:pos:R:3 pbc="F F F"
C        0.00000000       0.00000000       0.00000000
O        5.50803705      -2.78400874      -2.50033205
C        5.92052425      -2.86028943      -3.65627963
N        5.89976972      -1.83436600      -4.59948172
N        5.42826943      -0.56041802      -4.37971237
C        4.40056191      -0.44550658      -3.60182660
C        3.83386069       0.85414306      -3.30836390
C        4.23122302       2.07331426      -3.82284056
N        3.41019024       3.04335094      -3.31312351
H        3.47177163       4.02973334      -3.52789859
C        2.47904824       2.48448898      -2.46732079
C        1.44508224       3.08341058      -1.73623485
C        0.64721994       2.25451020      -0.94052759
C        0.88325909       0.88325909      -0.88325909
C        1.91482657       0.29561925      -1.62043772
C        2.72890039       1.11211779      -2.43397621
C        6.43676793      -4.18213548      -4.23087040
H        6.73315439      -4.83383237      -3.40076775
C        5.30627025      -4.86701786      -4.99184706
O        7.49541476      -3.92496957      -5.15674810
C        8.72997221      -4.41767929      -4.83050494
C        9.23397847      -4.41611719      -3.52595664
C       10.50754775      -4.92763654      -3.26287755
C       11.29631872      -5.41657992      -4.30248165
C       10.81881787      -5.38442008      -5.61186028
C        9.54288265      -4.88015692      -5.87502922
Br       8.94527008      -4.85517420      -7.67831577
H        6.55578063      -1.91682416      -5.37566966
H        3.87585984      -1.30648917      -3.15762618
H        5.02318115       2.32403348      -4.51548266
H        1.26266247       4.15246221      -1.77939704
H       -0.16249006       2.69415272      -0.36344892
H        2.09215511      -0.77414374      -1.56481275
H        4.97523948      -4.26540506      -5.84535987
H        4.44244771      -5.04230185      -4.34180147
H        5.64446498      -5.82875967      -5.39153579
H        8.66281789      -4.00818277      -2.69603356
H       10.88777450      -4.93565608      -2.24366096
H       12.28787575      -5.81140727      -4.09473471
H       11.44672772      -5.75204279      -6.41941812
O       -6.43126431       1.66443455      -0.45753059
C       -7.14483620       1.86670886      -1.43838711
N       -7.16407921       1.10393948      -2.60474571
N       -6.39607161      -0.01386401      -2.83762815
C       -5.19704194      -0.00882888      -2.35101110
C       -4.31438570      -1.14066951      -2.54131243
C       -4.57176638      -2.28661685      -3.26899462
N       -3.46067638      -3.08537567      -3.22061263
H       -3.37046667      -3.98489494      -3.67404194
C       -2.47477203      -2.48661117      -2.46947480
C       -1.18147160      -2.92540770      -2.15784837
C       -0.39065841      -2.09790121      -1.35369811
C       -0.88325909      -0.88325909      -0.88325909
C       -2.17358328      -0.45316140      -1.20413886
C       -2.98700811      -1.26962756      -2.01835872
C       -8.05997308       3.09156351      -1.51709328
H       -8.25226188       3.45207169      -0.49989957
C       -7.34328083       4.19730279      -2.28512141
O       -9.25016908       2.75911674      -2.23614095
C      -10.42674643       2.82380609      -1.53985752
C      -10.55101070       2.41530192      -0.20810914
C      -11.78512662       2.50040312       0.44193474
C      -12.90751281       2.96576921      -0.24047686
C      -12.80244251       3.33646051      -1.58027607
C      -11.56763823       3.25883716      -2.22895388
Br     -11.48340240       3.77144227      -4.05645152
H       -8.00626425       1.16760091      -3.17596279
H       -4.76402429       0.84896872      -1.81194129
H       -5.44997233      -2.59018676      -3.82253820
H       -0.79853896      -3.87310268      -2.52288009
H        0.61723414      -2.41484304      -1.09750269
H       -2.54853663       0.49396800      -0.82825548
H       -7.13511972       3.89806679      -3.31814136
H       -6.39316064       4.45805143      -1.80683812
H       -7.96900088       5.09466831      -2.33290853
H       -9.70637610       2.01155752       0.34414991
H      -11.87139972       2.19356662       1.48205371
H      -13.86685591       3.02819605       0.26745667
H      -13.68605922       3.68242079      -2.11046462
O        3.07774707       4.60150698       3.70060045
C        2.89491681       5.81365786       3.79777339
N        1.65649705       6.44870575       3.87267674
N        0.43521569       5.81466668       3.86811279
C        0.32925321       4.75934103       3.12679412
C       -0.91530389       4.02261414       3.05844962
C       -2.10925535       4.34214378       3.67597872
N       -3.04116199       3.40343475       3.32206793
H       -4.00558935       3.39725887       3.62655534
C       -2.48056844       2.46694876       2.48334081
C       -3.05044934       1.34335785       1.87092048
C       -2.22447636       0.55453004       1.06325133
C       -0.88325909       0.88325909       0.88325909
C       -0.32620406       2.00921686       1.49546262
C       -1.14236373       2.82224489       2.31038577
C        4.06419863       6.80074257       3.74895891
H        4.98443097       6.26837964       4.01614110
C        4.21396588       7.32170781       2.32335751
O        3.78800637       7.91810819       4.59709147
C        4.62239193       8.09819166       5.66699812
C        5.12687561       7.04044829       6.43024525
C        5.96857163       7.29503215       7.51632823
C        6.28833462       8.60592467       7.86463040
C        5.75716645       9.66845455       7.13496997
C        4.92163007       9.41488896       6.04449606
Br       4.22159658      10.90060622       5.08940201
H        1.64861938       7.38350952       4.27973599
H        1.14136067       4.38547652       2.48288100
H       -2.36992376       5.16480692       4.32796661
H       -4.09527722       1.08617916       2.01306535
H       -2.64216716      -0.32292699       0.57587142
H        0.72187005       2.25348125       1.35121291
H        3.32525423       7.87671648       2.00373204
H        4.37565813       6.49983184       1.61777362
H        5.06173767       8.01163481       2.25734396
H        4.86856209       6.00753033       6.21170044
H        6.36820458       6.46666845       8.09731551
H        6.94135510       8.80065059       8.71190771
H        5.99771220      10.68854710       7.42326814
O       -2.73440654      -2.36803731       5.59072959
C       -2.82230472      -3.51595349       6.02286567
N       -1.81187025      -4.47570660       6.00104908
N       -0.54234026      -4.28388153       5.50602251
C       -0.43166386      -3.52426731       4.46427848
C        0.86319748      -3.26068348       3.87248669
C        2.08031079      -3.78831750       4.25874956
N        3.04497689      -3.30726167       3.41442612
H        4.02870550      -3.53683761       3.46386044
C        2.48467281      -2.46741107       2.47877413
C        3.07839716      -1.76245025       1.42388026
C        2.24947061      -0.96624440       0.62654272
C        0.88325909      -0.88325909       0.88325909
C        0.30067894      -1.59452996       1.93567464
C        1.11718532      -2.40810749       2.74970158
C       -4.14460631      -4.06103482       6.56907434
H       -4.77827237      -3.21600444       6.86235771
C       -4.85947347      -4.82868253       5.46189038
O       -3.88514043      -4.97408533       7.63824840
C       -4.35276279      -4.62052145       8.87503919
C       -4.32251104      -3.30836919       9.35795977
C       -4.80930981      -3.01703544      10.63506313
C       -5.30189069      -4.03607330      11.44803784
C       -5.29808000      -5.35317719      10.99116089
C       -4.81857498      -5.64452169       9.71180824
Br      -4.83166718      -7.45719005       9.14288878
H       -1.89603916      -5.24001434       6.67065095
H       -1.29383256      -3.07465041       3.94617900
H        2.33273569      -4.47229986       5.05766174
H        4.14356897      -1.82563682       1.22531593
H        2.68512253      -0.40915432      -0.19916526
H       -0.76508893      -1.51895276       2.12896029
H       -4.27680443      -5.69686061       5.13513810
H       -5.03830814      -4.18963128       4.59062418
H       -5.82185693      -5.20749642       5.82160161
H       -3.91073821      -2.49422262       8.76718427
H       -4.79512970      -1.99194365      10.99896543
H       -5.67742616      -3.80638394      12.44224541
H       -5.66828753      -6.14471481      11.63767576
