177
Properties=species:S:1:pos:R:3 pbc="F F F"
C        0.00000000       0.00000000       0.00000000
C        6.72381866       4.35107672      -5.91657721
O        5.87889176       3.59124323      -5.06465401
C        5.26380285       2.50572613      -5.63622251
C        4.97318384       2.41730151      -7.00622335
C        4.35194542       1.28297582      -7.53242922
C        4.00859478       0.23017097      -6.69416620
C        4.27408073       0.32000286      -5.32878299
C        4.88948402       1.45966141      -4.77237988
C        5.20684951       1.51697071      -3.27527632
H        5.25342943       2.55889616      -2.93625104
C        6.54458173       0.83898116      -2.95473366
C        6.13061169      -0.48485446      -2.39228517
N        4.84692923      -0.51382343      -1.98866475
N        4.25022946       0.76055842      -2.44561902
C        2.98419781       1.22061015      -2.08175067
C        2.48620884       2.46736463      -2.48922688
C        1.22123395       2.92298456      -2.09908738
C        0.41508587       2.12811918      -1.29136700
C        0.88327889       0.88327889      -0.88327889
C        2.14798178       0.43693902      -1.27190515
C        7.03099205      -1.62748274      -2.23395665
C        8.41035034      -1.44050063      -2.08562664
C        9.27436655      -2.53347455      -1.95554845
C        8.75847933      -3.82661539      -1.98531654
Br       9.92511051      -5.30662974      -1.82226980
C        7.39082880      -4.03726172      -2.13523136
C        6.53486260      -2.93884431      -2.25279944
H        7.32200424       5.01696636      -5.28633359
H        6.13399336       4.97851286      -6.59277391
H        7.41629718       3.71156627      -6.47547670
H        5.21260185       3.22751010      -7.68701330
H        4.13502913       1.22168270      -8.59418219
H        3.53164837      -0.66231834      -7.08596512
H        4.00517337      -0.50560385      -4.67067417
H        7.07679857       1.40812261      -2.18193448
H        7.20046243       0.74604677      -3.82707714
H        3.08712219       3.10990565      -3.12452566
H        0.87628992       3.89739821      -2.43147267
H       -0.56471251       2.48147236      -0.98947800
H        2.50888648      -0.53472483      -0.94536699
H        8.81828590      -0.43444080      -2.05136730
H       10.33795629      -2.35804528      -1.82970652
H        6.97421568      -5.03744446      -2.16356010
H        5.46425059      -3.09756682      -2.37551350
C       -5.29912433      -4.68185689      -7.01049138
O       -4.51719182      -3.88452818      -6.13306901
C       -3.17378573      -3.82489601      -6.40706974
C       -2.47756671      -4.84338104      -7.07576095
C       -1.11057418      -4.72327442      -7.33350187
C       -0.42517849      -3.58857590      -6.91917756
C       -1.10534020      -2.58257406      -6.23495231
C       -2.48252679      -2.68637524      -5.95262328
C       -3.21516713      -1.54917224      -5.23475717
H       -4.09916684      -1.93590209      -4.71350770
C       -3.66453878      -0.45872631      -6.21503146
C       -2.65092139       0.62341035      -6.01053135
N       -1.97058450       0.50413753      -4.85532358
N       -2.35927712      -0.80681327      -4.29031652
C       -2.02539691      -1.25079983      -3.01036189
C       -2.47177229      -2.47671535      -2.49431271
C       -2.14408250      -2.89887990      -1.20034349
C       -1.34650040      -2.09858327      -0.38948838
C       -0.88327889      -0.88327889      -0.88327889
C       -1.21791896      -0.46586035      -2.17304663
C       -2.44498569       1.74053464      -6.93301491
C       -3.47985883       2.18741488      -7.76303240
C       -3.27750492       3.24166945      -8.66060498
C       -2.02672652       3.84879943      -8.73925340
Br      -1.74631172       5.26593768      -9.96037653
C       -0.98168961       3.41928948      -7.92639833
C       -1.19704169       2.37325666      -7.02503270
H       -6.35228321      -4.44591875      -6.82710223
H       -5.15815894      -5.74706086      -6.80006032
H       -5.08601637      -4.45592416      -8.06139963
H       -2.97787754      -5.75027541      -7.39897229
H       -0.58130110      -5.51432142      -7.85527151
H        0.63569676      -3.47430921      -7.11668269
H       -0.56831610      -1.69210017      -5.90982740
H       -4.65513636      -0.08318567      -5.92853363
H       -3.71479268      -0.80619950      -7.25259417
H       -3.09098541      -3.12787375      -3.10269435
H       -2.51569888      -3.85227677      -0.83718514
H       -1.09290648      -2.42606394       0.61273257
H       -0.85619117       0.48695181      -2.55028927
H       -4.46070003       1.72516194      -7.69967430
H       -4.10155230       3.57511228      -9.28317751
H       -0.00163999       3.87926654      -7.97795788
H       -0.38160335       2.02939474      -6.38998866
C       -6.90293733       4.49305249       5.59548278
O       -6.04650467       3.73256991       4.75571442
C       -5.65732344       2.50876338       5.23966466
C       -5.57649134       2.21150720       6.60871015
C       -5.18088892       0.94449728       7.04196427
C       -4.85524918      -0.03452106       6.11220382
C       -4.91187423       0.25999339       4.75099895
C       -5.29681701       1.53514841       4.28955990
C       -5.38979571       1.82133268       2.78796814
H       -5.25884540       2.89320826       2.59652297
C       -6.74220493       1.38414629       2.21194533
C       -6.41969277       0.09484689       1.52350273
N       -5.10536315      -0.06520873       1.28161613
N       -4.42638195       1.04566761       1.98435734
C       -3.07457155       1.36351587       1.84847120
C       -2.48896447       2.46732686       2.48650903
C       -1.13502557       2.78421839       2.32406193
C       -0.32726079       1.98934662       1.51796464
C       -0.88327889       0.88327889       0.88327889
C       -2.23558976       0.57565089       1.04558529
C       -7.42288824      -0.88059270       1.09517042
C       -8.73362905      -0.48359328       0.80544057
C       -9.69896451      -1.41889436       0.41637031
C       -9.35628136      -2.76564550       0.32654462
Br     -10.66202144      -4.03424402      -0.18702685
C       -8.06018874      -3.18442880       0.61303851
C       -7.10031867      -2.24109686       0.98959591
H       -7.31908194       5.30955829       4.99666397
H       -6.34165996       4.94236775       6.42125241
H       -7.74115007       3.89374614       5.96844395
H       -5.80776631       2.95701301       7.36234592
H       -5.12551563       0.72240603       8.10297236
H       -4.55248129      -1.02698567       6.42979953
H       -4.65674417      -0.50760892       4.02110843
H       -7.08535708       2.11391675       1.46758184
H       -7.52123426       1.27778035       2.97457173
H       -3.08959444       3.10487769       3.12708137
H       -0.72278301       3.65145099       2.83092680
H        0.72145890       2.23520168       1.39249508
H       -2.66399589      -0.28734697       0.54287972
H       -9.00512607       0.56647684       0.86360949
H      -10.70416121      -1.08066443       0.18612076
H       -7.77860373      -4.22922025       0.55094784
H       -6.08571763      -2.56352345       1.22000309
C        5.06335755      -4.87549471       7.05262033
O        4.28913639      -4.06790289       6.17774972
C        2.92685693      -4.17099489       6.30789966
C        2.28367246      -5.31994283       6.79309341
C        0.89305657      -5.36376138       6.91053253
C        0.13191894      -4.26355261       6.53746040
C        0.76211212      -3.12683499       6.03391947
C        2.16344895      -3.06319960       5.89487675
C        2.83452875      -1.78786924       5.37669855
H        3.80244231      -2.02650538       4.91962894
C        3.06348261      -0.77214034       6.50267360
C        1.96279013       0.22087212       6.29612438
N        1.41650642       0.16215535       5.06741948
N        1.99975023      -1.03460463       4.42205204
C        1.84389926      -1.36680176       3.07585761
C        2.47009498      -2.47912375       2.49358162
C        2.31936214      -2.78759616       1.13634759
C        1.52278916      -1.98587921       0.32590368
C        0.88327889      -0.88327889       0.88327889
C        1.04181820      -0.57835833       2.23664942
C        1.54632568       1.20484122       7.29598150
C        2.43949798       1.65800206       8.27398043
C        2.03589408       2.58285772       9.24340410
C        0.72464921       3.05176612       9.24429740
Br       0.17236778       4.29254352      10.56092631
C       -0.18216203       2.61291246       8.28387294
C        0.23377389       1.69788214       7.31292598
H        6.09734429      -4.51849144       7.00946846
H        5.06097521      -5.92000874       6.72429617
H        4.72451081      -4.78776981       8.09105954
H        2.84581523      -6.20307604       7.07823398
H        0.40461378      -6.25527159       7.29100865
H       -0.94934178      -4.27645614       6.62818078
H        0.16563673      -2.26334626       5.74126069
H        4.03048139      -0.27194245       6.36443183
H        3.04908283      -1.22422869       7.50027483
H        3.09386294      -3.12875201       3.09893855
H        2.82680426      -3.65441388       0.72394264
H        1.40630649      -2.22527532      -0.72534395
H        0.54283569       0.28731533       2.66400827
H        3.46640889       1.30417377       8.27297727
H        2.75332733       2.92573422       9.98202443
H       -1.20688078       2.96585620       8.27306831
H       -0.47277897       1.34690884       6.56188508
