197
Properties=species:S:1:pos:R:3 pbc="F F F"
C        0.00000000       0.00000000       0.00000000
C        0.88140440       0.88140440      -0.88140440
C        2.26398413       0.85566724      -0.72503774
C        3.06625821       1.66178861      -1.53783055
C        2.50015073       2.50184367      -2.50761518
C        1.10702105       2.51634366      -2.64196066
C        0.29811214       1.70641121      -1.83854338
N        3.35195408       3.32502754      -3.26287638
C        3.15716795       4.57618045      -3.88494773
C        2.19756595       5.46596695      -3.39696992
C        1.99449567       6.71126459      -3.99044532
C        2.76854886       7.14450892      -5.07173120
N        2.57585136       8.42858445      -5.62968311
C        1.98329775       9.60927097      -5.14409155
C        1.45982564      10.52072681      -6.07381349
C        0.77030207      11.66500316      -5.65897972
C        0.59576568      11.90849565      -4.30063704
C        1.12101197      11.02973368      -3.35900131
C        1.81398935       9.89102506      -3.78343587
C        3.71413871       6.23426375      -5.60835572
C        4.49252032       6.59482711      -6.82492888
O        4.43469940       7.72473052      -7.30388362
C        5.30880937       5.57127215      -7.50336032
C        5.88928465       5.85005466      -8.74825373
C        6.62927668       4.86932898      -9.41196493
C        6.79628074       3.61213182      -8.83362179
C        6.23369501       3.33918600      -7.58647764
C        5.48908132       4.32341615      -6.92171555
C        4.90258875       4.03263411      -5.60481888
O        5.24236809       3.01269779      -5.01127952
C        3.90818762       4.96934919      -5.01807060
H        2.72813759       0.22044949       0.02434786
H        4.14472805       1.64655174      -1.39696006
H        0.63369954       3.13455097      -3.39983787
H       -0.77986588       1.72685939      -1.97283799
H        4.19888162       2.84130275      -3.58593866
H        1.60122955       5.21209223      -2.52350532
H        1.19579220       7.33185697      -3.59313452
H        3.14429676       8.58633230      -6.47140255
H        1.56719014      10.32967535      -7.13950442
H        0.36603621      12.34605492      -6.40270872
H        0.99933143      11.21588583      -2.29517805
H        2.24305119       9.24144392      -3.02567952
H        5.76194184       6.82759150      -9.20999233
H        7.07220663       5.08551943     -10.38162596
H        7.36668852       2.84422137      -9.35267802
H        6.37148810       2.35627562      -7.13934768
C       -0.13349580      13.07183070      -3.86655267
C       -0.74425230      14.04612381      -3.50300702
Br      -1.73179389      15.62147337      -2.91518445
C       -0.88140440      -0.88140440      -0.88140440
C       -2.23815044      -0.59873369      -1.00780498
C       -3.03945884      -1.40680517      -1.81961337
C       -2.49926042      -2.50326234      -2.50708681
C       -1.13371108      -2.77245143      -2.35916286
C       -0.32369864      -1.96363886      -1.55572922
N       -3.36124960      -3.30832331      -3.27028509
C       -3.31823241      -4.67241134      -3.62765237
C       -2.64680392      -5.59334861      -2.82035028
C       -2.59931597      -6.94748480      -3.14940480
C       -3.25558288      -7.45289932      -4.27630678
N       -3.23161437      -8.83578764      -4.56671691
C       -2.97202490      -9.97809796      -3.78653741
C       -2.49371910     -11.12864343      -4.43200340
C       -2.12160558     -12.26566569      -3.70701369
C       -2.22396977     -12.26112337      -2.31980522
C       -2.71240792     -11.13952824      -1.65781080
C       -3.08738436     -10.00921784      -2.39184808
C       -3.90144229      -6.52410556      -5.13121033
C       -4.52532413      -6.98531066      -6.40164152
O       -4.61419358      -8.18145236      -6.66766760
C       -5.00055354      -5.99626034      -7.38662796
C       -5.41235869      -6.41650511      -8.65872925
C       -5.82473376      -5.47845747      -9.60737937
C       -5.83253060      -4.12173101      -9.28777274
C       -5.43953764      -3.70374637      -8.01607465
C       -5.02356122      -4.64573156      -7.06492025
C       -4.61538490      -4.20064458      -5.72401225
O       -4.83955099      -3.04185809      -5.38493632
C       -3.93581046      -5.15312198      -4.80667497
H       -2.68413864       0.23946407      -0.47956466
H       -4.10183514      -1.18725141      -1.89915330
H       -0.67410658      -3.59739277      -2.89658902
H        0.73609309      -2.18684844      -1.46907615
H       -4.03111546      -2.76570967      -3.82929790
H       -2.16364022      -5.27319899      -1.89998789
H       -2.01529476      -7.59978148      -2.50570746
H       -3.67403134      -9.06133890      -5.46666136
H       -2.38482935     -11.13704122      -5.51449934
H       -1.74348314     -13.13721302      -4.23410369
H       -2.80618721     -11.12911410      -0.57509399
H       -3.49799327      -9.16124285      -1.85093850
H       -5.40674667      -7.47340024      -8.91937876
H       -6.13640477      -5.80637767     -10.59656958
H       -6.14681948      -3.38859102     -10.02817742
H       -5.45178963      -2.64283080      -7.77249097
C       -1.82037861     -13.41928054      -1.56522842
C       -1.48237101     -14.38923717      -0.93327035
Br      -0.93584131     -15.95757501       0.08855240
C       -0.88140440       0.88140440       0.88140440
C       -0.85799942       2.26378291       0.72290678
C       -1.67037798       3.06551714       1.52998226
C       -2.50740998       2.49967048       2.50252912
C       -2.50894529       1.10765937       2.64872071
C       -1.70557123       0.29818462       1.83931089
N       -3.26590062       3.35705545       3.31690192
C       -3.75762576       3.22779154       4.63287883
C       -3.10756390       2.40104518       5.55189374
C       -3.57064935       2.26546291       6.86009330
C       -4.67861931       2.98130186       7.32486781
N       -5.10412122       2.86268072       8.66731698
C       -4.46590932       2.42705874       9.84369221
C       -5.26108513       1.91361909      10.87966171
C       -4.68709283       1.37234499      12.03484714
C       -3.30254111       1.33827364      12.16408361
C       -2.49291598       1.85755491      11.15927607
C       -3.07627848       2.40195475      10.01021704
C       -5.37737324       3.78806984       6.39131509
C       -6.62616273       4.48981673       6.79629684
O       -6.99913293       4.49730279       7.96687781
C       -7.46316423       5.14557996       5.77469766
C       -8.72850768       5.64093634       6.11814903
C       -9.54009635       6.22629036       5.14418388
C       -9.08966121       6.32368829       3.82868485
C       -7.82326126       5.84681619       3.48928120
C       -7.00989740       5.25729603       4.46701960
C       -5.67359588       4.76100920       4.10543665
O       -5.20396477       5.05330908       3.00907155
C       -4.91828615       3.91259326       5.06472801
H       -0.21250595       2.72882295      -0.01708967
H       -1.63296171       4.14590058       1.40937756
H       -3.16345882       0.63120542       3.37342413
H       -1.73606482      -0.78066011       1.96442679
H       -3.70707507       4.12418417       2.79486379
H       -2.20703050       1.86050146       5.26929514
H       -3.04862988       1.56534216       7.50681164
H       -5.97878031       3.36927216       8.85397914
H       -6.34457059       1.91101859      10.78078073
H       -5.32866210       0.97148561      12.81465214
H       -1.41036151       1.84533635      11.25469745
H       -2.42042438       2.83155782       9.25819243
H       -9.09092900       5.56666471       7.14193196
H      -10.52490549       6.60290512       5.41154141
H       -9.72366726       6.77314096       3.06677970
H       -7.47676920       5.92970012       2.46064207
C       -2.70410078       0.76101531      13.33977149
C       -2.20290699       0.27756146      14.32441008
Br      -1.39251903      -0.50414253      15.91648741
C        0.88140440      -0.88140440       0.88140440
C        0.69972758      -0.88383713       2.26112439
C        1.50698033      -1.69612453       3.06277252
C        2.50265829      -2.50736062       2.49959066
C        2.67182433      -2.48310576       1.11039528
C        1.86251694      -1.67972894       0.30082086
N        3.31538234      -3.26658905       3.35788660
C        4.64138630      -3.73427360       3.24263622
C        5.56288390      -3.05533129       2.44228763
C        6.88073609      -3.49440646       2.32106303
C        7.35216510      -4.60641399       3.02620988
N        8.70334616      -5.00763522       2.92313754
C        9.87587222      -4.34285721       2.51793085
C       10.93338685      -5.11208134       2.00889775
C       12.08755224      -4.51008089       1.49665182
C       12.19406545      -3.12320676       1.48762615
C       11.16736502      -2.33912077       2.00326117
C       10.01943005      -2.95044013       2.51858010
C        6.41728134      -5.33393947       3.80553737
C        6.83153163      -6.58747832       4.49326635
O        8.00792736      -6.94113849       4.51424769
C        5.81344121      -7.45213137       5.11786927
C        6.16986474      -8.71976994       5.59795836
C        5.20013121      -9.55704819       6.15339120
C        3.87582464      -9.13009917       6.23611055
C        3.52312469      -7.86164793       5.77458603
C        4.49666942      -7.02246272       5.21508089
C        4.12094314      -5.68416958       4.73492901
O        3.01216852      -5.23768378       5.01649309
C        5.08129651      -4.89897953       3.91533137
H       -0.05858323      -0.25855304       2.72426942
H        1.36793812      -1.67885280       4.14144893
H        3.41518633      -3.11746831       0.63543373
H        2.00592743      -1.69003125      -0.77612718
H        2.78822824      -3.72914465       4.10875014
H        5.27416861      -2.15063777       1.91202072
H        7.53007157      -2.95009438       1.64061773
H        8.89627786      -5.88747587       3.41827789
H       10.85277069      -6.19685559       1.98674362
H       12.88453473      -5.13186218       1.09840295
H       11.24478290      -1.25508554       2.01052687
H        9.24950567      -2.31440185       2.94626711
H        7.20067624      -9.06393563       5.53491380
H        5.47773216     -10.54349300       6.51812686
H        3.11735463      -9.78405973       6.66217355
H        2.48758359      -7.53363191       5.84589589
C       13.36891134      -2.49582220       0.94015403
C       14.35284478      -1.97038763       0.48164612
Br      15.94378194      -1.12080436      -0.25972238
