182
Properties=species:S:1:pos:R:3 pbc="F F F"
O        7.70777386       6.18415923      -3.16856790
C        8.04849424       5.49003407      -2.21111532
C        7.07617850       4.62631867      -1.43802424
C        5.82557038       4.35770311      -2.26012481
O        4.96587361       3.51051000      -1.49264463
C        3.80897082       3.09389316      -2.09241995
C        3.40117807       3.40395025      -3.39165041
C        2.19275094       2.90511913      -3.88817201
C        1.38533628       2.09787203      -3.08822045
C        1.79194069       1.79194069      -1.79194069
C        2.99715711       2.28441938      -1.29345909
N        9.35269368       5.48760104      -1.77362052
N        9.77912135       4.68584073      -0.75796590
C       11.05429181       4.66070066      -0.53422551
C       12.17371706       5.41122636      -1.26251654
O       12.00727136       6.19424763      -2.17097493
N       13.34210227       4.99164283      -0.66668476
C       13.08044753       4.07212356       0.35321019
C       13.97536667       3.41178169       1.17091470
Br      15.83727803       3.67363506       1.01669338
C       13.46661706       2.52129873       2.12587351
C       12.07248537       2.30876652       2.26089340
C       11.55571373       1.32221462       3.26948050
C       11.17854459       2.97519356       1.41094947
C       11.71246138       3.84666638       0.48108390
H        6.81416032       5.13743578      -0.50442708
H        7.53505679       3.66877883      -1.16868890
H        6.11325622       3.85705807      -3.19333250
H        5.31183122       5.29928309      -2.48909187
H        3.99952119       4.03068543      -4.04562536
H        1.88272581       3.14892394      -4.90143934
H        0.44747786       1.71611154      -3.48217527
H        3.31452861       2.04487119      -0.28212647
H       10.02142484       6.05571764      -2.29971414
H       14.26063416       5.30911510      -0.94407547
H       14.15261378       1.98021987       2.77669728
H       12.21218041       1.27899348       4.14472339
H       11.49567335       0.32598053       2.82082106
H       10.56082781       1.61231384       3.62359021
H       10.10528402       2.81815669       1.47084343
O       -4.14856470      -4.56867016      -8.34326613
C       -2.99404182      -4.19940822      -8.55619359
C       -2.21118696      -3.35178804      -7.57754640
C       -2.81388853      -3.44484378      -6.18466601
O       -2.01179943      -2.65470220      -5.30252661
C       -2.35234238      -2.66542049      -3.97752106
C       -3.39846419      -3.39271798      -3.40559656
C       -3.63630351      -3.32031518      -2.02942338
C       -2.83287830      -2.51879427      -1.21975619
C       -1.79194069      -1.79194069      -1.79194069
C       -1.54903367      -1.86311398      -3.16288793
N       -2.35729710      -4.52543143      -9.73118671
N       -1.06008148      -4.18781419      -9.97503231
C       -0.52478308      -4.67626616     -11.04816874
C       -1.14819903      -5.59967462     -12.09958632
O       -2.29361493      -5.99208005     -12.08679894
N       -0.13984689      -5.86011589     -13.00046708
C        1.03772350      -5.20051883     -12.63656555
C        2.26682502      -5.21834998     -13.26470870
Br       2.56207757      -6.22114465     -14.83515262
C        3.31026479      -4.47372467     -12.69858241
C        3.11240774      -3.71245694     -11.52030929
C        4.25758474      -2.95106850     -10.91496408
C        1.86210741      -3.71891100     -10.88598509
C        0.85466693      -4.46250442     -11.47020638
H       -2.21818615      -2.31236630      -7.92547073
H       -1.16528109      -3.67439649      -7.53284694
H       -2.80698695      -4.49393465      -5.86272519
H       -3.84341600      -3.06672903      -6.19006114
H       -4.04817201      -4.02648736      -4.00117260
H       -4.45124790      -3.89104814      -1.59079305
H       -3.02619884      -2.46777209      -0.15179373
H       -0.73617785      -1.29638401      -3.60896442
H       -2.87216682      -5.11205022     -10.39263958
H       -0.24822406      -6.45620084     -13.80939984
H        4.29263972      -4.47919582     -13.16958026
H        4.94998307      -2.60643476     -11.68999880
H        4.80071464      -3.58976306     -10.21178440
H        3.89758260      -2.06398032     -10.38315371
H        1.68178757      -3.16589042      -9.96849442
O       -5.32055529       8.15819866       3.58174705
C       -5.17775893       8.21136574       2.36051897
C       -4.29634236       7.24828229       1.59589676
C       -4.04060645       5.99095662       2.41183525
O       -3.23554198       5.10928706       1.62419921
C       -2.95240498       3.88276597       2.16011298
C       -3.39418223       3.40627272       3.39632378
C       -3.03674705       2.12409854       3.82519649
C       -2.23403454       1.31431881       3.02307541
C       -1.79194069       1.79194069       1.79194069
C       -2.14800716       3.06830482       1.35872359
N       -5.80605935       9.18659726       1.62125863
N       -5.72151304       9.23895187       0.26246307
C       -6.47346149      10.10882087      -0.33306439
C       -7.46619288      11.10192034       0.27934675
O       -7.66931470      11.23792936       1.46524987
N       -8.03786671      11.75330131      -0.79073816
C       -7.51156387      11.28655899      -1.99876198
C       -7.83178783      11.67005022      -3.28560439
Br      -9.13704460      12.98775985      -3.63058474
C       -7.16550033      11.04436832      -4.34782636
C       -6.18118640      10.05277024      -4.11359816
C       -5.50707822       9.37303918      -5.27166956
C       -5.88017228       9.66341203      -2.80079563
C       -6.55427426      10.30027036      -1.77650076
H       -3.34910660       7.74688859       1.36002799
H       -4.76193959       6.96490340       0.64568153
H       -5.00195058       5.51612141       2.64557480
H       -3.51645278       6.24169147       3.34206192
H       -4.01855115       4.00584999       4.05143083
H       -3.38619396       1.75897429       4.78792084
H       -1.96032621       0.32010426       3.36533420
H       -1.80348394       3.44042753       0.39761480
H       -6.41731139       9.83283053       2.12671470
H       -8.74751536      12.46728809      -0.70097871
H       -7.40725961      11.32206477      -5.37318802
H       -5.41970172      10.05253571      -6.12578694
H       -6.08263490       8.49320919      -5.57501128
H       -4.49343273       9.05813968      -5.00202097
H       -5.14830153       8.88996417      -2.58566841
O        3.07564308      -6.52034841       7.46450949
C        1.88461773      -6.67125736       7.19376854
C        1.13002299      -5.74062474       6.26987368
C        2.09346593      -4.96065198       5.38928040
O        1.32149910      -4.12969097       4.51783818
C        2.00928594      -3.39466054       3.59133745
C        3.39351813      -3.39719309       3.40606751
C        3.97238779      -2.60043805       2.41321624
C        3.17178139      -1.79556008       1.60408730
C        1.79194069      -1.79194069       1.79194069
C        1.20990609      -2.58670262       2.77842687
N        1.16200178      -7.70035335       7.75156011
N       -0.14028392      -7.93558477       7.42762713
C       -0.67014729      -9.01795545       7.90140982
C       -0.03196108     -10.09446801       8.78495305
O        1.10189335     -10.06203744       9.20856313
N       -1.00796769     -11.05030457       8.95809298
C       -2.18274880     -10.69114208       8.29096762
C       -3.37425449     -11.38316138       8.20732678
Br      -3.60978335     -13.05507716       9.04892589
C       -4.41849261     -10.81567867       7.46485623
C       -4.26550432      -9.56117254       6.82469026
C       -5.38943641      -8.99192290       6.00596135
C       -3.04298023      -8.87965588       6.90611302
C       -2.03429913      -9.46598501       7.64635798
H        0.52768879      -5.05327809       6.87505629
H        0.44084572      -6.30201514       5.62966366
H        2.69264890      -5.66846231       4.80253558
H        2.75433156      -4.33968243       6.00619218
H        4.05198992      -4.00765931       4.01618273
H        5.05063303      -2.60916172       2.27329434
H        3.63068399      -1.17882746       0.83625322
H        0.13304483      -2.58422800       2.92425345
H        1.66695408      -8.34495631       8.36494623
H       -0.87701955     -11.89758590       9.49325839
H       -5.36561576     -11.34657009       7.37518204
H       -6.36014854      -9.29409629       6.41250273
H       -5.31282316      -9.34170064       4.97195533
H       -5.36076527      -7.89717378       6.01314293
H       -2.88308713      -7.92745973       6.40822468
C       -0.00445707       0.01189536      -1.78238275
H       -0.66409135       0.67374010      -2.43557963
H        0.65740317      -0.63156657      -2.45157240
C       -0.90989263      -0.90692880      -0.91072765
C        0.90977584       0.90977584      -0.90977584
C       -0.00465871       1.77757030       0.00794375
H       -0.66225468       2.44313916      -0.64384735
H        0.64322798       2.43503045       0.67728295
C       -1.78241447       0.00034974      -0.00472694
H       -2.45427497      -0.65498947       0.64260836
H       -2.43311707       0.67328779      -0.65473579
C       -0.91132561       0.90220522       0.91563759
C       -0.01476271      -0.02253852       1.78660255
H       -0.67934791      -0.69751639       2.42135241
H        0.63392994       0.61504881       2.47327442
C        0.01484550      -1.77751727      -0.01636693
H        0.67870853      -2.42144646      -0.68295456
H       -0.62264859      -2.45592969       0.64226336
C        1.78714474       0.01002794       0.00389507
H        2.44202412       0.67113390       0.66197326
H        2.45385902      -0.65136977      -0.64189061
C        0.91606151      -0.90478549       0.90901405
