173
Properties=species:S:1:pos:R:3 pbc="F F F"
C        0.00000000       0.00000000       0.00000000
C       11.38583743      -3.96367820      -1.78868665
O       10.13837599      -3.64377511      -2.39879069
C        9.36152443      -2.75129938      -1.71219902
C        9.84303022      -1.76866746      -0.84959999
C        8.95560736      -0.92081362      -0.17364755
C        7.57595455      -1.04810638      -0.34840375
O        6.63386573      -0.32795016       0.33164785
C        7.03893826       0.75420909       1.16033685
C        7.39524632       2.02447485       0.38390403
O        8.54106316       2.47569011       0.35290251
N        6.36194501       2.63044230      -0.29875916
N        5.09515331       2.13981451      -0.23496288
C        4.27496244       2.49265280      -1.16954569
C        4.52589008       3.38272621      -2.38550042
O        5.53909582       4.01246845      -2.58996429
N        3.37444869       3.30243746      -3.13962767
C        2.42164263       2.49820924      -2.51165672
C        1.15324411       2.17124712      -2.95903084
C        0.60891375       2.66779781      -4.26034735
C        0.37624259       1.35845837      -2.11141473
C        0.88273709       0.88273709      -0.88273709
C        2.17079773       1.19826830      -0.46050029
C        2.90716239       2.00977250      -1.29765641
C        7.10442803      -2.00485964      -1.26173979
C        7.99064315      -2.84538574      -1.94331640
H       11.80562433      -4.82486685      -2.31716365
H       11.25512795      -4.24824745      -0.73847822
H       12.09450929      -3.13559451      -1.88631681
H       10.90697028      -1.62913751      -0.68576174
H        9.38764366      -0.17423483       0.48523039
H        7.85608816       0.47453313       1.83426770
H        6.19725900       0.98987379       1.82266232
H        6.59105503       3.39951758      -0.93082394
H        3.26001494       3.78073009      -4.02101371
H       -0.29217905       2.11688175      -4.55023693
H        1.34271042       2.52982598      -5.06157829
H        0.35460375       3.72911695      -4.18279074
H       -0.63483832       1.08324254      -2.40956389
H        2.58548647       0.83066717       0.47176475
H        7.61946985      -3.59089260      -2.64157475
C        5.69807265      -2.15120487      -1.53440737
C        4.52025001      -2.27376899      -1.76276646
Br       2.61581043      -2.47194482      -2.13200380
C        4.67345345     -10.83569482      -3.04860452
O        3.62539913     -10.15261910      -2.36617159
C        3.36810575      -8.88344145      -2.80708836
C        3.60062649      -8.42308957      -4.10149968
C        3.32515232      -7.09201860      -4.44157501
C        2.81820776      -6.20395939      -3.49050029
O        2.60191196      -4.87133134      -3.70484835
C        2.72652565      -4.34104128      -5.01829486
C        1.52705377      -4.64247742      -5.92039348
O        1.61639975      -5.36930843      -6.91094208
N        0.32899471      -4.06810283      -5.55203836
N        0.24750827      -3.24475349      -4.47268548
C       -0.92265730      -3.05806818      -3.95643546
C       -2.26472109      -3.65933091      -4.37006471
O       -2.45162275      -4.32929352      -5.36061228
N       -3.15730371      -3.26195638      -3.39725373
C       -2.53323516      -2.44879102      -2.44948240
C       -3.09193848      -1.86686656      -1.32471702
C       -4.52933213      -2.05177804      -0.95594875
C       -2.24145386      -1.06064719      -0.54401464
C       -0.88273709      -0.88273709      -0.88273709
C       -0.32978061      -1.49763804      -2.00214766
C       -1.18496355      -2.26785784      -2.76176991
C        2.53604883      -6.69270643      -2.20465059
C        2.80268348      -8.02374142      -1.86751586
H        4.91427406     -11.73632533      -2.47586986
H        5.58025394     -10.22269757      -3.10291508
H        4.35216134     -11.15155551      -4.04583740
H        3.98933024      -9.07759881      -4.87532594
H        3.52602549      -6.78969047      -5.46451346
H        3.65858834      -4.65253007      -5.50241185
H        2.81031264      -3.25175689      -4.92302621
H       -0.51387154      -4.35440778      -6.05311724
H       -4.13013096      -3.53083349      -3.40079429
H       -4.72085265      -1.72614345       0.07205646
H       -4.80866966      -3.10902872      -1.01641632
H       -5.16896265      -1.47061966      -1.62692913
H       -2.63468574      -0.56767616       0.34439378
H        0.71491280      -1.38751655      -2.27178515
H        2.59162277      -8.39399801      -0.86777677
C        1.95827311      -5.84761292      -1.19193534
C        1.47438594      -5.13984711      -0.34378632
Br       0.69198131      -3.99544965       1.02759892
C       -5.16719348       9.56079125      -5.51713884
O       -5.39057814       8.33262157      -4.82980814
C       -4.38190236       7.93576541      -3.99524372
C       -3.48782369       8.79238145      -3.35624239
C       -2.47146799       8.27757017      -2.54059687
C       -2.33388949       6.89997323      -2.35761080
O       -1.32493300       6.30349332      -1.65415859
C       -0.42601905       7.10453572      -0.89774427
C       -1.00848126       7.59831951       0.42901638
O       -1.22473105       8.79110041       0.64801930
N       -1.29747056       6.62837467       1.36530125
N       -1.02870539       5.31723785       1.12398745
C       -1.65652726       4.44208424       1.83854942
C       -2.70491424       4.66136873       2.92783374
O       -3.02083904       5.73729918       3.38339034
N       -3.16450368       3.40201841       3.24999173
C       -2.49279993       2.42272382       2.51598483
C       -2.67935642       1.05168503       2.55248062
C       -3.69474761       0.40365068       3.43866063
C       -1.84191132       0.27961173       1.72459264
C       -0.88273709       0.88273709       0.88273709
C       -0.72697676       2.26499781       0.83759175
C       -1.54503524       3.00005243       1.66950363
C       -3.27374012       6.04936027      -2.96179221
C       -4.29377017       6.56369404      -3.76889040
H       -5.93436235       9.65510784      -6.29154906
H       -4.19000322       9.56852039      -6.01316490
H       -5.27114979      10.41419911      -4.84011732
H       -3.55835469       9.87011278      -3.46487296
H       -1.80458980       8.99212323      -2.06853459
H       -0.03180204       7.94457967      -1.48002813
H        0.44993095       6.48504205      -0.67064064
H       -1.80757862       6.90924613       2.20457180
H       -3.88569451       3.23903503       3.93702921
H       -3.86133525      -0.64085421       3.15445860
H       -4.65873118       0.91719242       3.35819110
H       -3.35832751       0.42871582       4.47946811
H       -1.93771123      -0.80562648       1.72588337
H       -0.00769290       2.74997965       0.18671635
H       -5.01243290       5.89986773      -4.24214862
C       -3.22669048       4.62315804      -2.76857337
C       -3.18728641       3.42871367      -2.60675260
Br      -3.12357336       1.49739814      -2.34510209
C       -5.69597841      -5.87281679       9.03400751
O       -4.94270197      -6.00455986       7.83153367
C       -4.14049551      -4.94042762       7.52249195
C       -3.58571302      -4.06030871       8.44936707
C       -2.79731153      -2.98367961       8.02207321
C       -2.55782047      -2.77131103       6.66276137
O       -1.87723451      -1.70329044       6.14821181
C       -1.20297120      -0.81024000       7.02554170
C        0.12621607      -1.35406492       7.55553615
O        0.30014948      -1.61743626       8.74626502
N        1.11914767      -1.55227148       6.61972732
N        0.92587409      -1.23180531       5.31225129
C        1.70959880      -1.78290430       4.44465782
C        2.83705166      -2.78928863       4.66777642
O        3.25722430      -3.13554213       5.74876212
N        3.23883999      -3.17205066       3.40562317
C        2.51916670      -2.48833946       2.42400241
C        2.62787564      -2.60645784       1.04918859
C        3.59110582      -3.54732828       0.39862482
C        1.79694960      -1.77173467       0.27743142
C        0.88273709      -0.88273709       0.88273709
C        0.76637015      -0.79628806       2.26690810
C        1.60208137      -1.60969119       3.00281874
C       -3.07592335      -3.69578312       5.74144841
C       -3.85559683      -4.77566081       6.16850983
H       -6.43588927      -6.67856856       9.05524184
H       -6.23853164      -4.92107701       9.06281334
H       -5.05482373      -5.98658978       9.91346553
H       -3.74042130      -4.18783985       9.51617596
H       -2.39154594      -2.33108279       8.78864158
H       -1.84179086      -0.48442021       7.85372423
H       -0.99017046       0.10420349       6.45884442
H        1.96826007      -2.03609849       6.91703799
H        3.96675531      -3.85203755       3.24296588
H        3.36380005      -3.67612059      -0.66498100
H        3.53375977      -4.53771533       0.86263960
H        4.61215016      -3.16484430       0.48951698
H        1.85295242      -1.81475235      -0.80973666
H        0.05976921      -0.13211473       2.75250496
H       -4.26239098      -5.48243584       5.45010715
C       -2.81959931      -3.57091690       4.32995756
C       -2.60492793      -3.46634143       3.14783398
Br      -2.25782246      -3.29725175       1.23644012
