162
Properties=species:S:1:pos:R:3 pbc="F F F"
C        7.93227586      14.07408606       0.67925785
O        8.07341822      13.64254140      -0.66812672
C        7.58028752      12.40785727      -0.98352994
C        7.74592733      12.04427287      -2.31994114
C        7.29020035      10.80935240      -2.79302122
C        6.65613534       9.91115274      -1.93046418
O        6.16679362       8.68509964      -2.30922359
C        6.45347214       8.26553943      -3.63925426
C        5.92618120       6.87000021      -3.94979118
O        6.31075459       6.25596181      -4.94673702
N        4.97004817       6.41572801      -3.05518537
N        4.40987964       5.18761321      -3.24662822
C        3.58409711       4.77492958      -2.34076656
C        2.97846594       3.48058819      -2.46268758
C        3.04407416       2.52014231      -3.45724023
C        2.27070508       1.42207366      -3.01311402
C        1.77780556       1.77780556      -1.77780556
O        2.19338830       3.02992290      -1.44067856
C        6.49188113      10.28279074      -0.58649352
C        6.95102270      11.52116957      -0.11285788
H        8.37967166      15.06967964       0.75895431
H        8.47049788      13.41101349       1.36427403
H        6.87666427      14.15940237       0.95692770
H        8.23601943      12.73299183      -3.00573768
H        7.44892693      10.59306243      -3.84463994
H        7.53901058       8.23322884      -3.79306317
H        5.97519900       8.94128136      -4.35816865
H        4.76125689       6.96735500      -2.22579815
H        3.32630617       5.37880705      -1.45307763
H        3.59804557       2.61187984      -4.38248479
H        2.10205458       0.48636551      -3.52612662
H        6.80640798      11.76938567       0.93315559
C        5.84811031       9.40296412       0.35428502
C        5.30895226       8.66610932       1.14218704
Br       4.43717928       7.47467744       2.41615798
C      -11.85144017       1.43110445     -10.90676835
O      -11.71870100       0.03117886     -10.69656421
C      -10.69988251      -0.38507151      -9.88672070
C      -10.62515738      -1.76759396      -9.71739000
C       -9.63504847      -2.34318908      -8.91433643
C       -8.69647680      -1.53904814      -8.26222733
O       -7.69960244      -2.01517185      -7.44634257
C       -7.54768233      -3.42934262      -7.38124088
C       -6.38017771      -3.86269717      -6.50309771
O       -5.94866499      -5.01619975      -6.54858868
N       -5.91801618      -2.87332860      -5.64961676
N       -4.88963754      -3.15459218      -4.79989135
C       -4.44078060      -2.17642169      -4.08259096
C       -3.34161739      -2.39302115      -3.18710317
C       -2.63676617      -3.53537759      -2.84931295
C       -1.62759018      -3.13648822      -1.94181436
C       -1.77780556      -1.77780556      -1.77780556
O       -2.82259458      -1.31997257      -2.52142261
C       -8.77693424      -0.14813236      -8.43609879
C       -9.76959822       0.42785342      -9.24330535
H      -12.70348747       1.58842865     -11.57533817
H      -10.96296837       1.84242583     -11.39669479
H      -12.06368591       1.95199815      -9.96745118
H      -11.34965750      -2.40842202     -10.21666942
H       -9.63781229      -3.42472745      -8.82408956
H       -7.35252150      -3.82883895      -8.38394213
H       -8.44496825      -3.88437182      -6.94530894
H       -6.29562488      -1.93144730      -5.72733787
H       -4.86411794      -1.15806613      -4.13600678
H       -2.83292906      -4.52926359      -3.23021755
H       -0.88005405      -3.76055337      -1.47393929
H       -9.79605333       1.50668467      -9.35326940
C       -7.83995700       0.73639790      -7.79323031
C       -7.05523856       1.47719199      -7.25482797
Br      -5.78641521       2.67499338      -6.38427691
C      -11.64489777      -1.44324592      11.12545221
O      -11.53905780      -0.04503701      10.89006555
C      -10.54079641       0.37431264      10.05656567
C      -10.49199141       1.75485257       9.86329736
C       -9.52498421       2.33314455       9.03444521
C       -8.58394943       1.53375614       8.38004669
O       -7.60872654       2.01250080       7.53988952
C       -7.48156294       3.42769242       7.44901046
C       -6.33606544       3.86544467       6.54446247
O       -5.92320926       5.02648659       6.56375756
N       -5.87152432       2.86967845       5.69975877
N       -4.86210434       3.15356884       4.82844789
C       -4.40881196       2.17105569       4.11992560
C       -3.32829827       2.39069864       3.20274480
C       -2.64829526       3.53868412       2.83447733
C       -1.64765090       3.14132690       1.91691496
C       -1.77780556       1.77780556       1.77780556
O       -2.80242415       1.31535038       2.54621522
C       -8.63827016       0.14480685       8.57808838
C       -9.60775691      -0.43384828       9.41114152
H      -12.48308611      -1.60336017      11.81067105
H      -10.74173668      -1.83165245      11.60715310
H      -11.86382262      -1.98319150      10.19850782
H      -11.21879622       2.39193807      10.36401466
H       -9.54731407       3.41283116       8.92648408
H       -7.27664629       3.84705282       8.44160347
H       -8.39337859       3.86055257       7.02071785
H       -6.23200334       1.92314607       5.79926063
H       -4.81412813       1.14691173       4.19715099
H       -2.85475767       4.53543952       3.20221301
H       -0.91844833       3.76969062       1.42640776
H       -9.61435897      -1.51097932       9.53925841
C       -7.69733335      -0.73482049       7.93427655
C       -6.90929877      -1.47150839       7.39508415
Br      -5.63511351      -2.66267041       6.52325564
C       11.87478863     -10.88158424      -1.42926880
O       11.55394770     -10.87427037      -0.04413172
C       10.63890846      -9.95248852       0.38027775
C       10.36450441      -9.99853543       1.74710150
C        9.44691236      -9.11726375       2.32839787
C        8.78342832      -8.16843971       1.54588424
O        7.85975840      -7.27359519       2.02776327
C        7.68066133      -7.23780710       3.43979739
C        6.68484893      -6.17447332       3.88665033
O        6.61274977      -5.83229373       5.06840991
N        5.87180641      -5.69945953       2.86969561
N        4.92614820      -4.76051024       3.15746264
C        4.24873878      -4.28973106       2.16132341
C        3.25673203      -3.27866219       2.38634749
C        2.78297602      -2.69160812       3.54687257
C        1.83066824      -1.72277036       3.15245416
C        1.77780556      -1.77780556       1.77780556
O        2.63203951      -2.72695907       1.30499118
C        9.06340365      -8.12710722       0.17065450
C        9.98535308      -9.01058791      -0.41089084
H       12.61755696     -11.66802451      -1.59518449
H       12.32228019      -9.93051425      -1.73555710
H       10.99516639     -11.11997741      -2.03600487
H       10.87113115     -10.73281739       2.37080041
H        9.27901247      -9.21109812       3.39651871
H        8.63344019      -7.00231795       3.92954443
H        7.28437797      -8.19714451       3.79312652
H        6.04686482      -5.99565538       1.91188985
H        4.40874746      -4.62717838       1.12226502
H        3.10501389      -2.93674149       4.55065483
H        1.26179442      -1.06218659       3.79056569
H       10.17494570      -8.94458862      -1.47689625
C        8.41505835      -7.17291465      -0.69118359
C        7.87206915      -6.37377837      -1.41297299
Br       6.99410154      -5.08164259      -2.58004540
C       -0.00445707       0.01189536      -1.78238275
H       -0.66409135       0.67374010      -2.43557963
H        0.65740317      -0.63156657      -2.45157240
C       -0.90989263      -0.90692880      -0.91072765
C        0.90977584       0.90977584      -0.90977584
C       -0.00465871       1.77757030       0.00794375
H       -0.66225468       2.44313916      -0.64384735
H        0.64322798       2.43503045       0.67728295
C       -1.78241447       0.00034974      -0.00472694
H       -2.45427497      -0.65498947       0.64260836
H       -2.43311707       0.67328779      -0.65473579
C       -0.91132561       0.90220522       0.91563759
C       -0.01476271      -0.02253852       1.78660255
H       -0.67934791      -0.69751639       2.42135241
H        0.63392994       0.61504881       2.47327442
C        0.01484550      -1.77751727      -0.01636693
H        0.67870853      -2.42144646      -0.68295456
H       -0.62264859      -2.45592969       0.64226336
C        1.78714474       0.01002794       0.00389507
H        2.44202412       0.67113390       0.66197326
H        2.45385902      -0.65136977      -0.64189061
C        0.91606151      -0.90478549       0.90901405
