182
Properties=species:S:1:pos:R:3 pbc="F F F"
O       -2.17307341       4.13453348       0.62849684
C       -1.34061148       4.75205185       1.29924577
C       -0.39056720       5.75711400       0.67404245
S        1.15768071       4.95566143       0.14395929
C        0.50339443       3.94576203      -1.22712367
C        1.60459645       3.18351017      -1.92711341
C        2.49338703       3.90228429      -2.75262319
C        3.53098660       3.26142933      -3.43064244
C        3.69918306       1.88730539      -3.30232579
C        2.83475768       1.15688237      -2.48810104
C        1.79799839       1.79799839      -1.79799839
N       -1.24570245       4.53585015       2.65331786
N       -0.36436670       5.21064889       3.43487223
C       -0.41768934       4.93669059       4.70076430
C        0.47754049       5.61614902       5.66212791
C        1.65337449       6.20745382       5.16855634
C        2.47236305       6.85957821       6.06411179
O        3.64050114       7.48643523       5.76367621
C        4.02733900       7.98468138       7.06117292
O        3.09414951       7.63671062       8.10633955
C        2.16319050       6.94193410       7.40024940
C        1.02118510       6.37143327       7.92016921
C        0.16699263       5.69539877       7.03865742
H       -0.15851700       6.56519374       1.37365801
H       -0.88294531       6.22472169      -0.18538049
H        0.01701188       4.60630002      -1.95450250
H       -0.27135758       3.27651179      -0.85275997
H        2.38349030       4.98053449      -2.85981503
H        4.20941429       3.83875083      -4.05383534
H        4.50529351       1.38468352      -3.82973610
H        2.97934525       0.08352163      -2.39391331
H       -1.87470003       3.84639721       3.05113656
H       -1.13896834       4.20063836       5.09248815
H        1.92136469       6.15761961       4.11715525
H        4.10460092       9.07680430       7.00859940
H        5.01016760       7.57324246       7.31788655
H        0.80031802       6.46115424       8.97838175
C       -1.03356126       5.13616179       7.60392227
C       -2.03902514       4.66780082       8.07733159
Br      -3.66477520       3.91050074       8.84279442
O        3.11317825      -1.07510351      -3.37103797
C        3.31217419      -2.27349928      -3.15086951
C        2.61836528      -3.36303663      -3.94783300
S        1.04453711      -3.84676482      -3.16715515
C        0.09707382      -2.31525541      -3.45809854
C       -1.32226073      -2.43874490      -2.95421441
C       -2.22051980      -3.24709645      -3.68067826
C       -3.54598851      -3.40345689      -3.27361297
C       -4.00356187      -2.75074916      -2.13450321
C       -3.13191154      -1.94961705      -1.39821251
C       -1.79799839      -1.79799839      -1.79799839
N        4.17736633      -2.65926366      -2.15493252
N        4.44731986      -3.96400511      -1.89472470
C        5.31714562      -4.17772993      -0.95765264
C        5.71218494      -5.55451296      -0.58923358
C        4.84449227      -6.60647935      -0.93028488
C        5.22769862      -7.88946780      -0.60606029
O        4.51786791      -9.02041991      -0.86070815
C        5.40250990     -10.02702102      -0.32633634
O        6.61008330      -9.47907608       0.24447220
C        6.41843913      -8.15085358       0.02753926
C        7.29214244      -7.14473319       0.38014158
C        6.93233716      -5.82631269       0.07024156
H        3.25863637      -4.24418822      -4.04746689
H        2.43509343      -2.99808814      -4.96416216
H        0.07043239      -2.11296366      -4.53528314
H        0.61294529      -1.47176428      -2.99909519
H       -1.87938803      -3.77331825      -4.57113353
H       -4.21714154      -4.03983250      -3.84502643
H       -5.03535791      -2.86918590      -1.81516932
H       -3.50162642      -1.44746739      -0.50768637
H        4.61701050      -1.91831032      -1.61926080
H        5.79195635      -3.33937141      -0.42176682
H        3.89771366      -6.42782172      -1.43172099
H        5.67680516     -10.71666492      -1.13294607
H        4.87033480     -10.58695404       0.45109572
H        8.22896250      -7.38392674       0.87187373
C        7.87784734      -4.79887326       0.42234767
C        8.66971211      -3.93839274       0.71723654
Br       9.95009047      -2.54706851       1.19404691
O       -2.62289311       2.04762634      -3.33755621
C       -3.72491501       1.52729039      -3.14001079
C       -4.81777719       2.23218533      -2.35745818
S       -4.71160722       1.83911233      -0.58133669
C       -3.15637351       2.70747154      -0.18756492
C       -2.82425743       2.60767759       1.28328501
C       -3.59023844       3.36466029       2.19339577
C       -3.33627893       3.32199662       3.56478282
C       -2.30755072       2.52580254       4.05546098
C       -1.53982368       1.76553493       3.17438249
C       -1.79799839       1.79799839       1.79799839
N       -3.99304698       0.26987577      -3.62609290
N       -5.19861269      -0.33076005      -3.45644268
C       -5.32335064      -1.49729529      -4.00781839
C       -6.59293381      -2.24977177      -3.91160043
C       -7.48525006      -1.91440156      -2.87857654
C       -8.67695204      -2.60198496      -2.80713762
O       -9.65297029      -2.40875120      -1.88095894
C      -10.63542778      -3.37389540      -2.31068492
O      -10.22340819      -4.12825207      -3.47063554
C       -9.00064039      -3.58498963      -3.71077556
C       -8.14926004      -3.94274226      -4.73406862
C       -6.92545061      -3.26747471      -4.83424191
H       -5.80801256       1.95563296      -2.73062679
H       -4.72198296       3.31289991      -2.50772599
H       -3.26357817       3.76606879      -0.45183256
H       -2.35003661       2.31548363      -0.80760605
H       -4.40579169       3.98824818       1.82979995
H       -3.94692798       3.90736940       4.24770308
H       -2.10610123       2.49099989       5.12261201
H       -0.74059699       1.14470398       3.57147921
H       -3.24465742      -0.19456301      -4.12953380
H       -4.49138807      -1.95077996      -4.57142623
H       -7.25450730      -1.14129075      -2.15138750
H      -11.56588563      -2.84524321      -2.54783660
H      -10.82621560      -4.07256347      -1.48812862
H       -8.43719410      -4.71704653      -5.43705707
C       -6.06976503      -3.64030493      -5.93078184
C       -5.35312836      -3.95255024      -6.84913404
Br      -4.19438747      -4.45742449      -8.33403186
O       -2.53269357       0.10744553       3.97310233
C       -2.96144536      -1.04916988       4.02447009
C       -2.31154496      -2.10924970       4.89479960
S       -1.01805185      -3.00844544       3.97898926
C        0.20246729      -1.66313504       3.81067780
C        1.45828554      -2.13910233       3.11783216
C        2.33776451      -2.97810363       3.83242635
C        3.51621108      -3.45205060       3.25479670
C        3.84359431      -3.09308926       1.95213067
C        2.98679290      -2.26781821       1.22512999
C        1.79799839      -1.79799839       1.79799839
N       -4.05398488      -1.41558426       3.27523047
N       -4.57633258      -2.66781769       3.31992485
C       -5.63416516      -2.85735353       2.59504859
C       -6.31016023      -4.17252743       2.56919440
C       -5.57430124      -5.30357592       2.96299729
C       -6.21513399      -6.52314605       2.95981740
O       -5.66153279      -7.71398012       3.31081282
C       -6.78368280      -8.60284611       3.13168415
O       -7.97435176      -7.93073981       2.66813253
C       -7.53237653      -6.64759449       2.58965724
C       -8.28369390      -5.56160933       2.19453373
C       -7.66256018      -4.30553062       2.18076354
H       -3.05408363      -2.82170962       5.26539275
H       -1.87827751      -1.62751083       5.77792355
H        0.46970003      -1.29860559       4.80950878
H       -0.24947732      -0.82105781       3.28633370
H        2.09528578      -3.27739269       4.85116135
H        4.17364783      -4.10565713       3.82269550
H        4.76099580      -3.45925072       1.49946661
H        3.25302929      -1.99737428       0.20637661
H       -4.46358605      -0.69988352       2.68426314
H       -6.06210784      -2.04061660       1.99067312
H       -4.53210530      -5.23323538       3.26069898
H       -7.00412792      -9.08676542       4.09016832
H       -6.50982649      -9.37335782       2.40199218
H       -9.32414791      -5.69089096       1.91634746
C       -8.47982298      -3.18491781       1.79358343
C       -9.16428058      -2.24640458       1.46932009
Br     -10.27099063      -0.72890807       0.94501369
C       -0.00445707       0.01189536      -1.78238275
H       -0.66409135       0.67374010      -2.43557963
H        0.65740317      -0.63156657      -2.45157240
C       -0.90989263      -0.90692880      -0.91072765
C        0.90977584       0.90977584      -0.90977584
C       -0.00465871       1.77757030       0.00794375
H       -0.66225468       2.44313916      -0.64384735
H        0.64322798       2.43503045       0.67728295
C       -1.78241447       0.00034974      -0.00472694
H       -2.45427497      -0.65498947       0.64260836
H       -2.43311707       0.67328779      -0.65473579
C       -0.91132561       0.90220522       0.91563759
C       -0.01476271      -0.02253852       1.78660255
H       -0.67934791      -0.69751639       2.42135241
H        0.63392994       0.61504881       2.47327442
C        0.01484550      -1.77751727      -0.01636693
H        0.67870853      -2.42144646      -0.68295456
H       -0.62264859      -2.45592969       0.64226336
C        1.78714474       0.01002794       0.00389507
H        2.44202412       0.67113390       0.66197326
H        2.45385902      -0.65136977      -0.64189061
C        0.91606151      -0.90478549       0.90901405
