189
Properties=species:S:1:pos:R:3 pbc="F F F"
C        0.00000000       0.00000000       0.00000000
C        0.88232048       0.88232048      -0.88232048
C        1.65670476       1.88667360      -0.30179244
C        2.46032288       2.69681160      -1.10712228
C        2.50072587       2.47628321      -2.48349007
C        1.71131335       1.48303642      -3.06712164
C        0.90027218       0.68062629      -2.26224805
O        3.25848121       3.26482667      -3.37982146
C        4.45462634       3.88768734      -3.01080129
O        5.00350685       3.74404516      -1.92848443
N        4.89029689       4.64253298      -4.07249296
C        5.99218524       5.53416287      -4.12783760
C        6.66840697       5.88723213      -2.95599548
C        7.71924217       6.78886806      -2.98753520
C        8.12319254       7.34258420      -4.19727276
C        7.49713538       7.01822397      -5.42559374
C        7.93210420       7.55172978      -6.68566194
C        7.24498166       7.21501966      -7.85531200
C        6.16985034       6.34074452      -7.81807504
C        5.76335187       5.78816213      -6.60790020
C        6.39618712       6.10406195      -5.38159230
N        9.07765981       8.38547863      -6.74108850
C        9.76363812       8.83382401      -7.84232476
O        9.46741976       8.69105500      -9.01886111
O       10.91929863       9.47606665      -7.39260629
C       11.91347307       9.80781753      -8.33121273
C       12.36867597       8.88988030      -9.27962241
C       13.39840508       9.25239601     -10.14855735
C       13.97844521      10.51679286     -10.04403311
Br      15.37623847      11.00359448     -11.22033641
C       13.54147970      11.42205873      -9.07465158
C       12.50719688      11.06383345      -8.20845674
H        1.64311352       2.05236235       0.77246706
H        3.03991643       3.48648654      -0.63908699
H        1.72475000       1.33158817      -4.14241791
H        0.28832095      -0.09394570      -2.71661417
H        4.33061893       4.51292009      -4.89918660
H        6.38538082       5.49543435      -1.98424894
H        8.22302803       7.06306459      -2.06364537
H        8.94795131       8.04515264      -4.14139310
H        7.52363191       7.61468466      -8.82493510
H        5.65563374       6.07857834      -8.73962889
H        4.93377600       5.09077880      -6.66056347
H        9.55157595       8.61119565      -5.88223420
H       11.92804153       7.89987927      -9.35717887
H       13.73926946       8.54369420     -10.89890309
H       14.00213968      12.40259616      -8.98640449
H       12.16943325      11.76084268      -7.44687590
C       -0.88232048      -0.88232048      -0.88232048
C       -2.27030565      -0.80863099      -0.76623416
C       -3.07810647      -1.61741578      -1.56873451
C       -2.48860784      -2.47348050      -2.49841081
C       -1.09864910      -2.56105676      -2.60176555
C       -0.29186017      -1.75969555      -1.79159080
O       -3.22314204      -3.35063106      -3.32935623
C       -4.51736814      -3.06262645      -3.77312037
O       -5.09927072      -2.00758604      -3.56917969
N       -4.97923904      -4.14595978      -4.48012402
C       -6.27269937      -4.35954419      -5.02194214
C       -7.32225641      -3.49607962      -4.69329856
C       -8.60014080      -3.71516352      -5.18034111
C       -8.84776485      -4.79577446      -6.01951020
C       -7.83067365      -5.70109864      -6.40918081
C       -8.06566252      -6.79598203      -7.30785136
C       -7.02218169      -7.67127769      -7.62185393
C       -5.75148196      -7.47249989      -7.10468805
C       -5.50329505      -6.39309148      -6.26302767
C       -6.51764006      -5.48191327      -5.88228804
N       -9.34321732      -6.96044082      -7.90056879
C       -9.71945314      -7.80582766      -8.91450608
O       -9.04995085      -8.67402892      -9.45335610
O      -11.03001953      -7.48406251      -9.27388953
C      -11.56025700      -8.03945383     -10.45279250
C      -10.85341301      -8.02800479     -11.65676088
C      -11.45037025      -8.53946720     -12.80952099
C      -12.75404757      -9.03267224     -12.75255138
Br     -13.56158918      -9.72142363     -14.31715654
C      -13.46953976      -9.01522869     -11.55342156
C      -12.87206530      -8.50984056     -10.39758120
H       -2.73651688      -0.13069163      -0.05580030
H       -4.15563152      -1.56067532      -1.44918313
H       -0.64237040      -3.24836492      -3.30802076
H        0.78962612      -1.82622248      -1.87439306
H       -4.27609676      -4.85415092      -4.61247794
H       -7.18684852      -2.64626677      -4.03194882
H       -9.40693666      -3.04156204      -4.90123929
H       -9.87357379      -4.90596363      -6.35495962
H       -7.16138476      -8.52571647      -8.27615044
H       -4.94794107      -8.15506988      -7.37083002
H       -4.47942336      -6.28526506      -5.92042986
H      -10.07534250      -6.31486897      -7.65479433
H       -9.84220100      -7.63426026     -11.70863841
H      -10.89231717      -8.54730093     -13.74224865
H      -14.48942472      -9.38890529     -11.51281031
H      -13.42717072      -8.48577569      -9.46420542
C       -0.88232048       0.88232048       0.88232048
C       -0.50954494       1.13281264       2.20281323
C       -1.31695731       1.93539386       3.01190558
C       -2.47670937       2.50088799       2.48290178
C       -2.85986669       2.23509196       1.16651277
C       -2.05737973       1.42402157       0.36174523
O       -3.37049230       3.29867890       3.23395813
C       -2.95259558       4.09889544       4.30162394
O       -1.78661130       4.25885299       4.63057216
N       -4.06478363       4.67050745       4.87003176
C       -4.14703825       5.46449042       6.04265703
C       -3.03929068       5.58498307       6.88736083
C       -3.11617898       6.32206489       8.05740156
C       -4.30102295       6.96611112       8.39591542
C       -5.45726255       6.90330896       7.58038158
C       -6.67296528       7.59780152       7.89872913
C       -7.78708070       7.46260713       7.06562549
C       -7.72051705       6.69474825       5.91340460
C       -6.53630326       6.04796234       5.57514860
C       -5.37728190       6.11970290       6.38485657
N       -6.72447206       8.44577386       9.03398102
C       -7.70448130       9.33400960       9.40129600
O       -8.79410342       9.50662180       8.87661064
O       -7.23031573      10.06496217      10.49269366
C       -7.94610614      11.20523427      10.90116291
C       -8.37490880      12.17276870       9.99050118
C       -9.02936343      13.31355824      10.45643677
C       -9.22543899      13.48718383      11.82664836
Br     -10.10908253      15.03594509      12.45514174
C       -8.76874242      12.53209579      12.73735181
C       -8.11938103      11.38705794      12.27304809
H        0.40233650       0.70928835       2.61605695
H       -1.02066846       2.10186125       4.04296027
H       -3.77762844       2.65528123       0.76584641
H       -2.35456794       1.21979311      -0.66337163
H       -4.90800567       4.48091878       4.35380117
H       -2.09544448       5.09194472       6.67767491
H       -2.24870891       6.39153392       8.70949516
H       -4.28663448       7.51812262       9.32973995
H       -8.73280532       7.94899130       7.28145504
H       -8.59261694       6.61203314       5.26919088
H       -6.55076746       5.48919002       4.64516080
H       -5.90662409       8.52269333       9.61568839
H       -8.21413320      12.04759112       8.92337535
H       -9.37946146      14.05721498       9.74519032
H       -8.91158822      12.67407817      13.80547394
H       -7.75431453      10.64525573      12.97758157
C        0.88232048      -0.88232048       0.88232048
C        0.43092261      -1.27063414       2.14361406
C        1.23780034      -2.07338762       2.95306879
C        2.47825685      -2.50124928       2.48099302
C        2.93836936      -2.09727310       1.22582896
C        2.13533940      -1.28606755       0.42173957
O        3.37502557      -3.28770637       3.24039740
C        2.94440080      -4.20446321       4.20425095
O        1.77399967      -4.48104341       4.42099337
N        4.05331320      -4.73403360       4.81797604
C        4.11094691      -5.61474303       5.92849576
C        2.95524092      -5.89083191       6.66556175
C        3.00297509      -6.71520917       7.77746117
C        4.20790445      -7.29186373       8.16328132
C        5.41436635      -7.07178633       7.45480041
C        6.65573873      -7.69448401       7.81927318
C        7.81564276      -7.40426916       7.09540140
C        7.77421002      -6.55001076       6.00444912
C        6.56965724      -5.97060730       5.61914966
C        5.36163088      -6.19929162       6.32091887
N        6.69023695      -8.62807537       8.88591462
C        7.70990232      -9.46556988       9.26431470
O        8.84743158      -9.50889142       8.82101288
O        7.21573774     -10.31985093      10.25238290
C        7.99084497     -11.43160513      10.63005322
C        8.56829689     -12.28339085       9.68649095
C        9.27807074     -13.40521411      10.11607359
C        9.38153353     -13.67737018      11.48036747
Br      10.34062594     -15.20041673      12.05912669
C        8.77740920     -12.84010874      12.42067208
C        8.07221332     -11.71380801      11.99346575
H       -0.54243736      -0.95496291       2.51048325
H        0.87771637      -2.34806080       3.93971280
H        3.91631994      -2.41023055       0.87220559
H        2.49269392      -0.97430747      -0.55601197
H        4.91504514      -4.43726400       4.39041648
H        1.99243678      -5.45637273       6.41625460
H        2.09658916      -6.90590013       8.34724870
H        4.16770285      -7.91963709       9.04715711
H        8.77928076      -7.83248716       7.35148374
H        8.68347675      -6.34646256       5.44390166
H        6.60907108      -5.33643281       4.73961439
H        5.83921311      -8.81643579       9.38935691
H        8.48054257     -12.08203562       8.62252149
H        9.74316179     -14.05737276       9.38133220
H        8.84868171     -13.05962825      13.48283036
H        7.59292549     -11.06408599      12.72014035
