157
Properties=species:S:1:pos:R:3 pbc="F F F"
C        0.00000000       0.00000000       0.00000000
C        0.88201974       0.88201974      -0.88201974
C        1.42664289       0.36527580      -2.05302245
C        2.25133316       1.17285639      -2.83984619
C        2.54266429       2.48978311      -2.46654098
C        1.96862145       2.99996971      -1.30406564
C        1.14509622       2.19643302      -0.50631813
O        3.39083897       3.13007310      -3.31752041
C        3.93958190       4.42735301      -3.04580038
H        4.69516655       4.52698348      -3.83601045
C        2.88947403       5.50717379      -3.32820002
C        4.73202767       4.66425569      -1.72292521
O        4.68572145       3.89807288      -0.75476218
N        5.52401596       5.78155159      -1.61840467
N        5.97116334       6.51553781      -2.75891083
C        6.83216847       7.47945488      -2.39049904
H        7.07559463       7.71833341      -1.35954563
C        7.44892743       8.28595824      -3.39531503
C        7.63261331       7.93227652      -4.71407056
N        8.26125469       8.96619060      -5.34679783
H        8.51211102       8.97221693      -6.32326684
C        8.49434999       9.99939753      -4.46704221
C        9.08941873      11.24981948      -4.67655940
C        9.18567616      12.11207261      -3.57968290
C        8.70938478      11.72758665      -2.32775811
Br       8.85576817      12.92640199      -0.86922523
C        8.11959718      10.47686237      -2.13004634
C        8.00379030       9.59150095      -3.22313776
H        1.23337086      -0.65851751      -2.35646824
H        2.69429331       0.76888350      -3.74716722
H        2.17452947       4.00880604      -0.96333665
H        0.73834019       2.60759240       0.41281341
H        2.06715724       5.48138862      -2.60847063
H        2.44303312       5.35124665      -4.31726443
H        3.30798845       6.51635292      -3.29813701
H        6.05012151       5.87998789      -0.75880014
H        7.36292536       7.02622834      -5.23866870
H        9.45583808      11.54474059      -5.65329194
H        9.63538663      13.09146363      -3.71693690
H        7.73727985      10.17584643      -1.16029157
C       -0.88201974      -0.88201974      -0.88201974
C       -1.52380297      -1.98755784      -0.33358032
C       -2.30863775      -2.80123545      -1.15416254
C       -2.45481336      -2.52573326      -2.51844176
C       -1.82594079      -1.40020113      -3.04651487
C       -1.03303487      -0.58182292      -2.23298958
O       -3.21848893      -3.43364656      -3.18629698
C       -3.37165994      -3.42845532      -4.61262003
H       -3.88287785      -4.38331501      -4.79196761
C       -4.36287737      -2.33544907      -5.02652140
C       -2.10502858      -3.49294688      -5.52123311
O       -0.96160978      -3.26399729      -5.11294944
N       -2.25880994      -3.81843795      -6.84672433
N       -3.42467604      -4.47468520      -7.34625074
C       -3.26698603      -4.79265069      -8.64248567
H       -2.40795601      -4.50451113      -9.24100653
C       -4.29820762      -5.51820970      -9.31378339
C       -5.23745457      -6.32788264      -8.71362318
N       -6.03907820      -6.84405779      -9.69110714
H       -6.81420498      -7.46728341      -9.52610640
C       -5.64565974      -6.38643514     -10.92869485
C       -6.18178399      -6.63566800     -12.19834562
C       -5.56793058      -6.01725058     -13.29225051
C       -4.46018779      -5.19078565     -13.11375609
Br      -3.66061042      -4.36962302     -14.62116195
C       -3.93264448      -4.95113488     -11.84272653
C       -4.53907453      -5.55759689     -10.72175759
H       -1.41223695      -2.23595169       0.71686705
H       -2.79849831      -3.67695589      -0.73488984
H       -1.89549533      -1.15134451      -4.09983232
H       -0.52578005       0.26959446      -2.67693358
H       -3.96220297      -1.33162511      -4.86318841
H       -5.27760981      -2.40738095      -4.42655344
H       -4.64097040      -2.39999930      -6.08150867
H       -1.40939754      -3.88563107      -7.39388093
H       -5.38763583      -6.56958096      -7.67060562
H       -7.04537502      -7.27741578     -12.33107980
H       -5.96927493      -6.18709275     -14.28741949
H       -3.07700990      -4.30029220     -11.69611575
C       -0.88201974       0.88201974       0.88201974
C       -0.35786861       1.44711579       2.03995673
C       -1.17972977       2.23233566       2.85197032
C       -2.52163767       2.45462063       2.52273007
C       -3.02394760       1.90234833       1.34636086
C       -2.20926972       1.10961653       0.52896111
O       -3.19646808       3.20732819       3.43463621
C       -4.61266815       3.42738464       3.37268250
H       -4.81354818       3.90312304       4.34148926
C       -4.92991891       4.48496358       2.30996535
C       -5.57919633       2.20319981       3.33681243
O       -5.21230204       1.05328984       3.07296464
N       -6.91027784       2.40430056       3.60939382
N       -7.38728026       3.56173206       4.29659966
C       -8.70278231       3.45098245       4.54835763
H       -9.32503458       2.63479212       4.19364697
C       -9.36048658       4.47901104       5.29070309
C       -8.75749060       5.35178299       6.16968680
N       -9.72119963       6.17446592       6.67857758
H       -9.55105004       6.91225938       7.34428538
C      -10.95233056       5.86051399       6.14794518
C      -12.20696179       6.44394859       6.36488723
C      -13.29704844       5.91049110       5.66989212
C      -13.12980099       4.83376867       4.80115989
Br     -14.63132479       4.14348838       3.87658223
C      -11.87385899       4.25840243       4.59424447
C      -10.75653692       4.78371753       5.27817456
H        0.67369477       1.27531968       2.32969668
H       -0.78049446       2.66220148       3.76764809
H       -4.06023736       2.03237713       1.05405767
H       -2.63504554       0.66246173      -0.36438810
H       -4.73776295       4.12248329       1.29677025
H       -4.29357205       5.36636703       2.45160512
H       -5.97323935       4.80911394       2.34012508
H       -7.49752830       1.57936014       3.61202110
H       -7.72128844       5.44183095       6.46470301
H      -12.33082121       7.28316970       7.03987969
H      -14.28009361       6.35010179       5.81359176
H      -11.73536836       3.42687725       3.91117224
C        0.88201974      -0.88201974       0.88201974
C        2.17048358      -1.20515165       0.46930590
C        2.96001001      -2.03205709       1.27196864
C        2.47420403      -2.54457577       2.48020858
C        1.19086959      -2.19059025       2.89119695
C        0.39027607      -1.36670391       2.09086738
O        3.35021240      -3.36382882       3.12439126
C        3.00204084      -4.11446158       4.29623288
H        3.87079177      -4.77567845       4.41169026
C        3.00503650      -3.19647552       5.52333582
C        1.78186431      -5.08568470       4.25165956
O        0.91608885      -5.05159807       3.37086959
N        1.65322754      -6.03054358       5.24020111
N        2.74743645      -6.43349318       6.06468236
C        2.38735129      -7.45694769       6.85782341
H        1.37844543      -7.85347163       6.92155661
C        3.36273263      -8.05298605       7.71448203
C        4.72715973      -8.02586736       7.52593330
N        5.31093174      -8.70973924       8.55357215
H        6.30469236      -8.83940482       8.66349762
C        4.35343598      -9.18708520       9.42026855
C        4.49040499      -9.91876983      10.60662280
C        3.32125800     -10.26427131      11.29190235
C        2.07134417      -9.89416422      10.79922115
Br       0.51293604     -10.37884707      11.75961227
C        1.94674404      -9.16620603       9.61355582
C        3.11226928      -8.79876417       8.90739556
H        2.56573196      -0.83776931      -0.47217968
H        3.96165917      -2.30255347       0.94613140
H        0.76250858      -2.57283621       3.81132736
H       -0.61887331      -1.13421366       2.41777883
H        2.18749418      -2.47130393       5.49821839
H        3.93484025      -2.61682009       5.55988386
H        2.91129166      -3.75031396       6.46087275
H        0.86858811      -6.66499871       5.15532272
H        5.31511961      -7.57287104       6.73983175
H        5.46546597     -10.20173894      10.98666569
H        3.39989005     -10.82450104      12.21939607
H        0.97709239      -8.86592742       9.23039804
