150
Properties=species:S:1:pos:R:3 pbc="F F F"
O        7.02275538       5.34285225      -7.71201804
C        6.32650270       4.49118865      -7.15612303
N        5.59202291       4.80547956      -6.02817045
N        4.78905301       3.83143144      -5.37059725
C        4.23923235       4.31007457      -4.24754951
H        4.37264427       5.32145854      -3.87500820
C        3.40277966       3.42031139      -3.41838241
C        3.19121611       2.06904316      -3.73350091
C        2.39009568       1.25572938      -2.92704800
C        1.79207177       1.79207177      -1.79207177
C        1.99116956       3.13014715      -1.45494211
C        2.79485063       3.93716244      -2.26753127
C        6.20737026       3.03964685      -7.64494810
O        7.12450825       2.70661821      -8.69012677
C        7.33365717       1.36054489      -8.84298367
C        6.38393246       0.37171851      -8.56834379
C        6.70711582      -0.97749748      -8.72899858
C        7.97622497      -1.34173824      -9.17642670
C        8.91166326      -0.35142357      -9.47502852
Br      10.63339253      -0.84659916     -10.08182550
C        8.59299760       0.99659380      -9.32009424
H        5.65415049       5.74070240      -5.65093801
H        3.65920752       1.64584871      -4.61940786
H        2.24644090       0.21587360      -3.20176643
H        1.52990530       3.55723494      -0.57063303
H        2.94625846       4.97943599      -2.00003064
H        5.18503247       2.91011275      -8.02121044
H        6.39106303       2.38981342      -6.78007674
H        5.38719257       0.63155130      -8.22209357
H        5.96822771      -1.73940622      -8.49629417
H        8.22455061      -2.39312261      -9.28665021
H        9.31985224       1.77343457      -9.54002254
O       -7.11687067      -5.31849276      -7.64226224
C       -6.43245469      -4.46156876      -7.07979092
N       -5.64072363      -4.78962129      -5.99532800
N       -4.85041141      -3.81014014      -5.33053016
C       -4.23679113      -4.30963422      -4.25043107
H       -4.31506048      -5.33946997      -3.91458056
C       -3.40272900      -3.41967069      -3.41907376
C       -3.25743009      -2.04955749      -3.68677260
C       -2.45657043      -1.23647264      -2.87982999
C       -1.79207177      -1.79207177      -1.79207177
C       -1.92454340      -3.14936802      -1.50234740
C       -2.72845761      -3.95602825      -2.31505849
C       -6.39047329      -2.98830095      -7.51319097
O       -7.36192212      -2.65225454      -8.50707656
C       -7.62982500      -1.31089007      -8.59647066
C       -6.70922228      -0.29562431      -8.31914816
C       -7.09141839       1.04452395      -8.41172248
C       -8.39107143       1.37388299      -8.79372499
C       -9.29833144       0.35865582      -9.09559258
Br     -11.06153002       0.80649967      -9.61358851
C       -8.92092659      -0.98025579      -9.00850326
H       -5.65062140      -5.74068944      -5.65448007
H       -3.77748520      -1.61138865      -4.53559024
H       -2.36519494      -0.18163257      -3.11725343
H       -1.41111709      -3.59163612      -0.65502007
H       -2.82777373      -5.01331568      -2.08463569
H       -5.39023914      -2.80242659      -7.92368992
H       -6.56403932      -2.38097096      -6.61594290
H       -5.68973425      -0.52790135      -8.02320185
H       -6.37411893       1.82626726      -8.17726400
H       -8.68477711       2.41775739      -8.85105850
H       -9.62510365      -1.77691696      -9.23128875
O       -5.90555766       8.09623656       6.07583145
C       -5.13996757       7.56418757       5.26965924
N       -5.11931919       6.19073927       5.11561445
N       -4.23597556       5.56080763       4.19429851
C       -4.30294800       4.22563689       4.26827155
H       -4.95552522       3.67454802       4.93903777
C       -3.42456314       3.41089079       3.40601952
C       -2.48128476       3.97765534       2.53482008
C       -1.66746512       3.17556985       1.72983809
C       -1.79207177       1.79207177       1.79207177
C       -2.71802903       1.20496589       2.65326391
C       -3.52849133       2.01522289       3.45583012
C       -4.16194559       8.34839569       4.38162393
O       -4.07673281       9.73829555       4.70622486
C       -2.94320299      10.35291677       4.24106596
C       -2.26016987       9.98655826       3.07726662
C       -1.09421286      10.65934739       2.70505667
C       -0.61452172      11.70821020       3.48818151
C       -1.31362069      12.08809212       4.63355539
Br      -0.66188699      13.51115324       5.69557864
C       -2.47978640      11.42250543       5.00739382
H       -5.72605575       5.62620888       5.69352627
H       -2.37981575       5.05940699       2.48524136
H       -0.95030404       3.64752440       1.06625249
H       -2.82154618       0.12642128       2.70980581
H       -4.24864737       1.55212251       4.12495521
H       -4.51719584       8.25088796       3.34827186
H       -3.17373292       7.88655753       4.50066272
H       -2.61697180       9.17480778       2.44905787
H       -0.56062824      10.35603650       1.80845093
H        0.29967977      12.21824159       3.19951639
H       -3.02385452      11.70529633       5.90415850
O        5.43929669      -7.87328513       6.76504385
C        4.60514128      -7.33143480       6.03723829
N        4.86335089      -6.10238193       5.45994009
N        3.90755471      -5.46037331       4.62315369
C        4.31019813      -4.24032201       4.24633629
H        5.25484183      -3.78516093       4.52910825
C        3.42186028      -3.41643914       3.40317403
C        2.14264413      -3.84029255       3.01082350
C        1.32887179      -3.03512818       2.20887309
C        1.79207177      -1.79207177       1.79207177
C        3.05703336      -1.34638939       2.17283608
C        3.86500917      -2.15854114       2.97599403
C        3.23696248      -7.94746880       5.70753393
O        2.93255981      -9.11705508       6.47163834
C        1.59793170      -9.42713771       6.51211633
C        0.68522792      -9.14872743       5.49003940
C       -0.66311406      -9.47961845       5.64211253
C       -1.10081684     -10.10087656       6.81085371
C       -0.18251728     -10.40122387       7.81656161
Br      -0.77736573     -11.24395233       9.40203227
C        1.16482619     -10.07661516       7.66824429
H        5.73935415      -5.64226046       5.66417630
H        1.77647189      -4.81115477       3.33683744
H        0.34614678      -3.39530158       1.92263257
H        3.42655630      -0.37746892       1.85374806
H        4.85015286      -1.80612882       3.26944342
H        3.25401692      -8.21787440       4.64446434
H        2.47910238      -7.17848974       5.90336106
H        1.00363393      -8.66853639       4.56866712
H       -1.36801741      -9.24345287       4.84968020
H       -2.15284391     -10.34353428       6.92738785
H        1.88427046     -10.29729816       8.45174073
C       -0.00445707       0.01189536      -1.78238275
H       -0.66409135       0.67374010      -2.43557963
H        0.65740317      -0.63156657      -2.45157240
C       -0.90989263      -0.90692880      -0.91072765
C        0.90977584       0.90977584      -0.90977584
C       -0.00465871       1.77757030       0.00794375
H       -0.66225468       2.44313916      -0.64384735
H        0.64322798       2.43503045       0.67728295
C       -1.78241447       0.00034974      -0.00472694
H       -2.45427497      -0.65498947       0.64260836
H       -2.43311707       0.67328779      -0.65473579
C       -0.91132561       0.90220522       0.91563759
C       -0.01476271      -0.02253852       1.78660255
H       -0.67934791      -0.69751639       2.42135241
H        0.63392994       0.61504881       2.47327442
C        0.01484550      -1.77751727      -0.01636693
H        0.67870853      -2.42144646      -0.68295456
H       -0.62264859      -2.45592969       0.64226336
C        1.78714474       0.01002794       0.00389507
H        2.44202412       0.67113390       0.66197326
H        2.45385902      -0.65136977      -0.64189061
C        0.91606151      -0.90478549       0.90901405
