141
Properties=species:S:1:pos:R:3 pbc="F F F"
C        0.00000000       0.00000000       0.00000000
O        7.23337365       4.41629654      -2.76565633
C        7.41024406       3.81338792      -1.70890083
N        6.45811557       3.04144577      -1.06297958
N        5.20747100       2.90505555      -1.58007133
C        4.40164125       2.16804412      -0.88546605
C        3.00996176       1.93398102      -1.31768487
C        2.20401607       1.12605029      -0.50841527
C        0.88209298       0.88209298      -0.88209298
C        0.35838644       1.43429938      -2.05058958
C        1.16462152       2.24089162      -2.85582003
C        2.48677569       2.49044280      -2.49107782
O        3.20773861       3.29032590      -3.33183274
C        8.72883632       3.90533128      -0.94248995
O        8.80292335       2.91743283       0.08557938
C        9.92613671       2.92272168       0.86852100
C       10.96738409       3.85118218       0.80162775
C       12.05606611       3.75261818       1.67491297
C       12.11163160       2.72541880       2.61560138
C       11.07542553       1.79789932       2.67787019
C        9.98636437       1.89278606       1.81162262
H        6.72350518       2.56447520      -0.20421526
H        4.72036782       1.68774142       0.05739876
H        2.59717804       0.68915952       0.40559357
H       -0.67128812       1.24529704      -2.34376780
H        0.76439709       2.67618069      -3.76847361
H        4.11808907       3.38941567      -2.96905941
H        8.76709578       4.91102229      -0.50824157
H        9.53997154       3.75381417      -1.66359318
H       10.96778179       4.66776366       0.08645941
H       12.86235720       4.48065512       1.62048664
H       12.96148000       2.65768782       3.28967354
H        9.18175504       1.16473714       1.86485509
C       11.12813347       0.73290624       3.64565715
C       11.17227638      -0.15902547       4.45617873
Br      11.24365172      -1.60120361       5.76672357
O       -7.34699204      -4.04173805      -3.02659643
C       -7.55506435      -3.33542029      -2.04204818
N       -6.59400934      -2.58924268      -1.37928890
N       -5.29837636      -2.60105627      -1.79316525
C       -4.48960198      -1.87337902      -1.09217042
C       -3.05220852      -1.79217073      -1.41724840
C       -2.24635716      -0.98396053      -0.60816394
C       -0.88209298      -0.88209298      -0.88209298
C       -0.31613968      -1.57610365      -1.95103208
C       -1.12248786      -2.38260450      -2.75624080
C       -2.48675065      -2.49079658      -2.49074908
O       -3.20496649      -3.30069816      -3.32423260
C       -8.93446156      -3.25192776      -1.39026823
O       -9.00413433      -2.17428068      -0.45636179
C      -10.18324666      -2.01915693       0.22206620
C      -11.29360947      -2.86230598       0.13897693
C      -12.43659299      -2.59889692       0.90171858
C      -12.47731171      -1.49146015       1.74732285
C      -11.37166162      -0.64924491       1.82545186
C      -10.22854787      -0.90841197       1.06943205
H       -6.88502295      -2.01826915      -0.58890354
H       -4.84009872      -1.28733433      -0.22327743
H       -2.67224655      -0.43752305       0.22902561
H        0.74659647      -1.49795745      -2.16641573
H       -0.68955548      -2.92790530      -3.59159061
H       -4.14694198      -3.29311496      -3.03650722
H       -9.09658752      -4.20886071      -0.88091142
H       -9.66781219      -3.09940934      -2.19015736
H      -11.30813695      -3.73617010      -0.50477899
H      -13.29699325      -3.26103945       0.83550703
H      -13.36974361      -1.29565574       2.33590506
H       -9.36971926      -0.24622657       1.13430874
C      -11.40840223       0.49787583       2.69514384
C      -11.43917250       1.45858945       3.42351088
Br     -11.48892542       3.01198211       4.60121877
O       -3.76795617       7.39654347       3.25082688
C       -2.98840298       7.61787057       2.32625927
N       -2.27677722       6.65056207       1.63520164
N       -2.39737725       5.33523996       1.95998066
C       -1.67812428       4.52494089       1.25208625
C       -1.69940726       3.06899766       1.49322272
C       -0.89085765       2.26320773       0.68441625
C       -0.88209298       0.88209298       0.88209298
C       -1.66888867       0.29934663       1.87504010
C       -2.47411464       1.10592556       2.68129296
C       -2.48989121       2.48691451       2.49149059
O       -3.30298589       3.20455243       3.32235892
C       -2.66932141       9.03990674       1.86742940
O       -1.97367636       9.04044145       0.62065899
C       -1.59887972      10.25931210       0.12214557
C       -1.76797819      11.49167047       0.75728987
C       -1.32327824      12.66746559       0.14302749
C       -0.71157139      12.61846279      -1.10858516
C       -0.54808130      11.38997109      -1.74259772
C       -0.98702847      10.21431917      -1.13381984
H       -1.67799001       6.94660964       0.86759599
H       -1.01911080       4.88864415       0.44295553
H       -0.27145546       2.70230291      -0.09301438
H       -1.66377240      -0.77660711       2.03061142
H       -3.09044912       0.66013688       3.45846539
H       -3.22780193       4.15876290       3.08999932
H       -2.04746924       9.48777502       2.65111539
H       -3.62081797       9.57344311       1.76311782
H       -2.23798659      11.57929128       1.73180817
H       -1.45453481      13.62395024       0.64404063
H       -0.36932932      13.53739825      -1.57723329
H       -0.85739684       9.25910433      -1.63486407
C        0.08072607      11.33290283      -3.03679420
C        0.60735224      11.28510816      -4.12068374
Br       1.45886221      11.20782822      -5.87324147
O        3.40997756      -7.41152552       3.59382343
C        2.53146078      -7.63718773       2.76388430
N        1.84357741      -6.67017805       2.04878546
N        2.10579534      -5.34896659       2.23783594
C        1.39537354      -4.53842960       1.52134828
C        1.56326329      -3.07559111       1.62277325
C        0.75445416      -2.26980092       0.81422654
C        0.88209298      -0.88209298       0.88209298
C        1.80502542      -0.29275562       1.74549436
C        2.61023181      -1.09923604       2.55186531
C        2.49029461      -2.48680193       2.49119977
O        3.31319595      -3.20368986       3.31301144
C        2.05073046      -9.05716225       2.46876484
O        1.24420392      -9.09914042       1.29143246
C        0.72184000     -10.31576584       0.94273155
C        0.84371251     -11.49980608       1.67341994
C        0.24487448     -12.67705321       1.21184362
C       -0.47461254     -12.67814340       0.01791816
C       -0.59114605     -11.49836589      -0.71176517
C        0.00146104     -10.32119169      -0.25512494
H        1.15265442      -6.97344433       1.36609689
H        0.63505629      -4.90672804       0.80892614
H        0.02995569      -2.71387900       0.13690930
H        1.90630694       0.78830882       1.79977860
H        3.33223439      -0.64825381       3.22856320
H        3.13547919      -4.16304426       3.17804071
H        1.46883184      -9.37647778       3.34105002
H        2.93930599      -9.68416653       2.33390637
H        1.39346821     -11.54744080       2.60817703
H        0.34022875     -13.59535014       1.78694678
H       -0.93629607     -13.59773449      -0.33194413
H       -0.09239261      -9.40430875      -0.83027905
C       -1.33088437     -11.49349294      -1.94722601
C       -1.95041520     -11.48941184      -2.98192446
Br      -2.95214416     -11.48281305      -4.65494435
