133
Properties=species:S:1:pos:R:3 pbc="F F F"
C        0.00000000       0.00000000       0.00000000
O        7.23337365       4.41629654      -2.76565633
C        7.41024406       3.81338792      -1.70890083
N        6.45811557       3.04144577      -1.06297958
N        5.20747100       2.90505555      -1.58007133
C        4.40164125       2.16804412      -0.88546605
C        3.00996176       1.93398102      -1.31768487
C        2.20401607       1.12605029      -0.50841527
C        0.88209298       0.88209298      -0.88209298
C        0.35838644       1.43429938      -2.05058958
C        1.16462152       2.24089162      -2.85582003
C        2.48677569       2.49044280      -2.49107782
O        3.20773861       3.29032590      -3.33183274
C        8.72883632       3.90533128      -0.94248995
O        8.80292335       2.91743283       0.08557938
C        9.92613671       2.92272168       0.86852100
C       10.96738409       3.85118218       0.80162775
C       12.05606611       3.75261818       1.67491297
C       12.11163160       2.72541880       2.61560138
C       11.07542553       1.79789932       2.67787019
Br      11.14463229       0.39953862       3.94859699
C        9.98636437       1.89278606       1.81162262
H        6.72350518       2.56447520      -0.20421526
H        4.72036782       1.68774142       0.05739876
H        2.59717804       0.68915952       0.40559357
H       -0.67128812       1.24529704      -2.34376780
H        0.76439709       2.67618069      -3.76847361
H        4.11808907       3.38941567      -2.96905941
H        8.76709578       4.91102229      -0.50824157
H        9.53997154       3.75381417      -1.66359318
H       10.96778179       4.66776366       0.08645941
H       12.86235720       4.48065512       1.62048664
H       12.96148000       2.65768782       3.28967354
H        9.18175504       1.16473714       1.86485509
O       -7.14436678      -4.63518482      -2.63577492
C       -7.29675218      -4.09272020      -1.54306043
N       -6.35133624      -3.30580655      -0.90539814
N       -5.13592672      -3.08280995      -1.47386120
C       -4.33237518      -2.34035239      -0.78242385
C       -2.97667205      -2.01691248      -1.26804312
C       -2.17065488      -1.20914433      -0.45868242
C       -0.88209298      -0.88209298      -0.88209298
C       -0.39167570      -1.35137158      -2.10022813
C       -1.19784370      -2.15801069      -2.90547877
C       -2.48681607      -2.49022976      -2.49125048
O       -3.21000467      -3.28423581      -3.33565677
C       -8.56962544      -4.28660576      -0.72042635
O       -8.63918765      -3.35357705       0.35798790
C       -9.72043726      -3.45205534       1.19215521
C      -10.71845005      -4.42706178       1.12857330
C      -11.76567743      -4.42450268       2.05640880
C      -11.82298646      -3.44719241       3.04872985
C      -10.83018895      -2.47315654       3.10789083
Br     -10.90227644      -1.14192205       4.44862458
C       -9.78240700      -2.47236244       2.18724165
H       -6.59592300      -2.88399162      -0.01228101
H       -4.62613641      -1.92186764       0.19729358
H       -2.53805192      -0.83631004       0.49361797
H        0.61195627      -1.09754272      -2.43219026
H       -0.82340946      -2.52895926      -3.85668268
H       -4.09539560      -3.44572033      -2.93544823
H       -8.53837134      -5.31244214      -0.33554617
H       -9.42199306      -4.14165046      -1.39373537
H      -10.71572808      -5.20775649       0.37439852
H      -12.53818941      -5.18843616       2.00409989
H      -12.64041771      -3.45402051       3.76494393
H       -9.01163291      -1.70844418       2.23844000
O       -4.43427804       7.22667476       2.75437371
C       -3.83885041       7.40075818       1.69292422
N       -3.08249782       6.44282190       1.03722120
N       -2.93948247       5.19464547       1.55846992
C       -2.20373723       4.38834402       0.86307017
C       -1.95244819       3.00308194       1.30609752
C       -1.14438621       2.19718514       0.49691027
C       -0.88209298       0.88209298       0.88209298
C       -1.41586031       0.36525580       2.06215930
C       -2.22116376       1.17197100       2.86819840
C       -2.48917988       2.48724619       2.49187025
O       -3.28416129       3.21003520       3.33570076
C       -3.82430025       8.75902390       0.99333340
O       -3.31983734       8.65301021      -0.33807076
C       -3.22319397       9.81419775      -1.05705433
C       -3.50097753      11.09785051      -0.58188951
C       -3.34524730      12.20782943      -1.41930541
C       -2.91532248      12.04088424      -2.73475770
C       -2.64348972      10.76040644      -3.20844150
Br      -2.06316647      10.52485877      -4.99245132
C       -2.79439447       9.65047613      -2.37734281
H       -2.65381772       6.69022121       0.14815670
H       -1.73313820       4.70345555      -0.08588328
H       -0.72036305       2.58555337      -0.42517243
H       -1.21297276      -0.65924593       2.36404988
H       -2.64113204       0.77745424       3.79046512
H       -3.39947396       4.11434193       2.96274827
H       -3.18050656       9.41178794       1.59406515
H       -4.85538261       9.12958952       0.97240676
H       -3.83769146      11.27701968       0.43437490
H       -3.55973012      13.20544170      -1.04264614
H       -2.79719682      12.90950685      -3.37720938
H       -2.58171060       8.65387098      -2.75394449
O        5.11017078      -6.89617068       2.40898506
C        4.70142444      -6.97868379       1.25242458
N        3.89910755      -6.04131656       0.62211682
N        3.48867301      -4.92384965       1.28007521
C        2.73613799      -4.12556393       0.59344951
C        2.20871142      -2.87645067       1.17646556
C        1.40114920      -2.07032589       0.36700653
C        0.88209298      -0.88209298       0.88209298
C        1.15960882      -0.49187817       2.19178841
C        1.96503660      -1.29867914       2.99761742
C        2.48850239      -2.48771868       2.49207524
O        3.26526668      -3.21991667       3.34471389
C        4.99984358      -8.19693475       0.37987922
O        4.67236582      -7.95007626      -0.98766528
C        4.86174792      -8.98382558      -1.86523611
C        5.27293203     -10.27645445      -1.53244795
C        5.41262360     -11.24935109      -2.52820338
C        5.14610700     -10.93524658      -3.85990456
C        4.74104389      -9.64514170      -4.19073093
Br       4.38081501      -9.20984618      -5.99508727
C        4.59750903      -8.67194659      -3.20192783
H        3.64142985      -6.20013611      -0.34937032
H        2.45649611      -4.34677509      -0.45256073
H        1.17504238      -2.36105291      -0.65535130
H        0.75641210       0.43370407       2.59506868
H        2.18617316      -1.00252670       4.02035154
H        3.57341964      -4.02866842       2.87447609
H        4.39220576      -9.01922573       0.77492816
H        6.06983701      -8.41445088       0.47309100
H        5.49130893     -10.56756241      -0.50978530
H        5.72980048     -12.25530839      -2.26258319
H        5.25731639     -11.69813510      -4.62595720
H        4.28224361      -7.66673633      -3.46734285
