154
Properties=species:S:1:pos:R:3 pbc="F F F"
O        8.14327768       5.32620057      -3.67556035
C        8.32014808       4.72329195      -2.61880485
N        7.36801960       3.95134980      -1.97288360
N        6.11737502       3.81495957      -2.48997535
C        5.31154527       3.07794815      -1.79537008
C        3.91986578       2.84388505      -2.22758889
C        3.11392009       2.03595431      -1.41831929
C        1.79199700       1.79199700      -1.79199700
C        1.26829047       2.34420340      -2.96049361
C        2.07452554       3.15079564      -3.76572405
C        3.39667972       3.40034682      -3.40098184
O        4.11764264       4.20022992      -4.24173676
C        9.63874035       4.81523530      -1.85239397
O        9.71282737       3.82733685      -0.82432465
C       10.83604073       3.83262571      -0.04138303
C       11.87728811       4.76108621      -0.10827628
C       12.96597013       4.66252221       0.76500895
C       13.02153562       3.63532283       1.70569735
C       11.98532955       2.70780335       1.76796617
Br      12.05453631       1.30944264       3.03869297
C       10.89626839       2.80269008       0.90171860
H        7.63340920       3.47437922      -1.11411929
H        5.63027184       2.59764544      -0.85250526
H        3.50708206       1.59906355      -0.50431045
H        0.23861590       2.15520106      -3.25367182
H        1.67430112       3.58608471      -4.67837763
H        5.02799310       4.29931970      -3.87896344
H        9.67699980       5.82092632      -1.41814560
H       10.44987556       4.66371820      -2.57349721
H       11.87768581       5.57766769      -0.82344462
H       13.77226122       5.39055914       0.71058262
H       13.87138403       3.56759185       2.37976951
H       10.09165907       2.07464116       0.95495106
O       -4.27749657      -4.54865404      -8.31888797
C       -3.38513903      -3.73338563      -8.54372023
N       -2.68586949      -3.03035572      -7.57602778
N       -2.96444190      -3.20207104      -6.25579701
C       -2.25361929      -2.48600822      -5.44523598
C       -2.44721026      -2.56019082      -3.98393864
C       -1.63849246      -1.75154731      -3.17815393
C       -1.79199700      -1.79199700      -1.79199700
C       -2.74086219      -2.62791060      -1.20421468
C       -3.54715738      -3.43312747      -2.01076038
C       -3.40129766      -3.39993887      -3.39677185
O       -4.22909010      -4.21656615      -4.11395307
C       -2.98222934      -3.35577909      -9.96836119
O       -1.75831145      -2.62086654      -9.98531088
C       -1.31097830      -2.19263571     -11.20643546
C       -1.97972284      -2.34365940     -12.42326836
C       -1.41754588      -1.84322368     -13.60271383
C       -0.18459788      -1.19354839     -13.57301482
C        0.48306626      -1.04804371     -12.36018929
Br       2.15745584      -0.17111132     -12.31163051
C       -0.07381483      -1.54255223     -11.18087282
H       -1.94710017      -2.39838253      -7.87642501
H       -1.47740330      -1.79043818      -5.81258107
H       -0.89513075      -1.09422441      -3.62110090
H       -2.86196659      -2.66118330      -0.12433889
H       -4.29014192      -4.08758523      -1.56103632
H       -4.02986619      -4.10439221      -5.07201783
H       -3.79878729      -2.74575059     -10.37153384
H       -2.86557842      -4.28642451     -10.53508803
H       -2.94148816      -2.84170111     -12.49560884
H       -1.94462917      -1.96070960     -14.54689898
H        0.24351943      -0.80810711     -14.49461867
H        0.45330929      -1.42664922     -10.23800923
O       -8.27403073       4.87376921       3.99723865
C       -8.48679653       4.14595575       3.02949261
N       -7.52431488       3.40515914       2.36277897
N       -6.22189490       3.44778587       2.75262918
C       -5.41266826       2.72205173       2.05014350
C       -3.96842799       2.67260849       2.35030324
C       -3.16259155       1.86433997       1.54126218
C       -1.79199700       1.79199700       1.79199700
C       -1.21972812       2.51547272       2.83778664
C       -2.02609954       3.32195270       3.64299299
C       -3.39665686       3.40077235       3.40057918
O       -4.11447954       4.21275042       4.23237936
C       -9.87591303       4.02582246       2.40463413
O       -9.94262959       2.93021092       1.49164836
C      -11.13069609       2.74157749       0.83777588
C      -12.25461231       3.56604029       0.92599799
C      -13.40609609       3.26826462       0.18912268
C      -13.44173890       2.14500659      -0.63558440
C      -12.32246189       1.32148336      -0.71877851
Br     -12.36365546      -0.20595373      -1.83241574
C      -11.17089104       1.61489791       0.01145092
H       -7.81898354       2.81470534       1.58821883
H       -5.76793410       2.11402939       1.19845907
H       -3.59338015       1.29513814       0.72193777
H       -0.15204692       2.46036174       3.03508012
H       -1.58828250       3.89011101       4.46036995
H       -5.06117130       4.18300539       3.96209954
H      -10.06461583       4.97022295       1.88123294
H      -10.59187978       3.87481072       3.22040047
H      -12.27355158       4.45112191       1.55412462
H      -14.27712671       3.91595802       0.25915302
H      -14.34086307       1.92249298      -1.20414969
H      -10.30140681       0.96715785      -0.05721550
O        4.16047988      -8.30641170       4.67814701
C        3.23788412      -8.52801998       3.89634079
N        2.56049125      -7.56266001       3.16910174
N        2.88576680      -6.24740871       3.28913443
C        2.17926907      -5.43730879       2.56828563
C        2.41248823      -3.98023659       2.59861490
C        1.60356424      -3.17442990       1.79019956
C        1.79199700      -1.79199700       1.79199700
C        2.77560519      -1.20791896       2.58946332
C        3.58080913      -2.01434832       3.39588778
C        3.40038430      -3.39667447       3.40094961
O        4.22767382      -4.11380207       4.21813344
C        2.68573153      -9.93674873       3.68388937
O        1.82750843      -9.99268864       2.54429181
C        1.23996687     -11.19886425       2.27121834
C        1.34398500     -12.35548627       3.04717933
C        0.67682747     -13.52373877       2.66291715
C       -0.09352929     -13.54336102       1.50132936
C       -0.19235267     -12.39118504       0.72633437
Br      -1.23244491     -12.41025476      -0.85252387
C        0.46836671     -11.22293976       1.10593340
H        1.82832952      -7.86376174       2.52981645
H        1.37382056      -5.80153713       1.90506487
H        0.83223131      -3.61439459       1.16383017
H        2.92430533      -0.13098542       2.59219803
H        4.34991256      -1.56740903       4.02144187
H        4.00424713      -5.06928633       4.13274277
H        2.12963209     -10.19356926       4.59287037
H        3.54055604     -10.60705384       3.53948108
H        1.93156401     -12.38793118       3.95930292
H        0.75870027     -14.42045577       3.27308171
H       -0.60812391     -14.45574471       1.21158557
H        0.38793039     -10.32770182       0.49571695
C       -0.00445707       0.01189536      -1.78238275
H       -0.66409135       0.67374010      -2.43557963
H        0.65740317      -0.63156657      -2.45157240
C       -0.90989263      -0.90692880      -0.91072765
C        0.90977584       0.90977584      -0.90977584
C       -0.00465871       1.77757030       0.00794375
H       -0.66225468       2.44313916      -0.64384735
H        0.64322798       2.43503045       0.67728295
C       -1.78241447       0.00034974      -0.00472694
H       -2.45427497      -0.65498947       0.64260836
H       -2.43311707       0.67328779      -0.65473579
C       -0.91132561       0.90220522       0.91563759
C       -0.01476271      -0.02253852       1.78660255
H       -0.67934791      -0.69751639       2.42135241
H        0.63392994       0.61504881       2.47327442
C        0.01484550      -1.77751727      -0.01636693
H        0.67870853      -2.42144646      -0.68295456
H       -0.62264859      -2.45592969       0.64226336
C        1.78714474       0.01002794       0.00389507
H        2.44202412       0.67113390       0.66197326
H        2.45385902      -0.65136977      -0.64189061
C        0.91606151      -0.90478549       0.90901405
