193
Properties=species:S:1:pos:R:3 pbc="F F F"
C        0.00000000       0.00000000       0.00000000
O        5.46680260       3.42476099      -5.08709731
C        4.98027243       4.52408074      -5.34423139
N        3.72563621       4.95549998      -4.89940621
N        2.84150148       4.16010880      -4.21418205
C        3.32920433       3.42969983      -3.25898736
C        2.47616642       2.52322136      -2.46599157
C        1.16757720       2.23079156      -2.86366938
C        0.36927678       1.40464054      -2.06951617
C        0.88192227       0.88192227      -0.88192227
C        2.19042275       1.16294109      -0.48776048
C        2.99380579       1.98146556      -1.28522213
C        5.63667972       5.54843258      -6.28682092
N        7.10221464       5.71431576      -6.10998267
C        7.88784078       4.49219239      -6.36790858
C        7.75905838       3.97095854      -7.80096446
N        8.13067837       5.02335826      -8.80710442
C        7.54697749       6.37378741      -8.52455864
C        7.61619567       6.75170033      -7.03177759
S        7.86255609       4.46398440     -10.39960834
O        8.41881397       3.13137149     -10.48175814
O        6.47723991       4.71859367     -10.73582277
C        8.88601480       5.54083320     -11.37019907
C       10.22674091       5.20708378     -11.57612585
C       11.03059186       6.03540717     -12.35928630
C       10.48596001       7.18738038     -12.93171481
Br      11.57883804       8.31419508     -13.98476115
C        9.14260778       7.51189694     -12.73871842
C        8.33181060       6.68114299     -11.96474515
H        3.26334552       5.68362516      -5.43582551
H        4.39086700       3.47947505      -2.95942676
H        0.76700859       2.64267045      -3.78670977
H       -0.64770441       1.18203437      -2.38161766
H        2.59028767       0.75683645       0.43799344
H        4.01049422       2.20286625      -0.96994163
H        5.17264285       6.52492047      -6.09222589
H        5.35676265       5.26108608      -7.30640406
H        7.65507296       3.70047109      -5.65234751
H        8.94569352       4.72038821      -6.17131711
H        8.44542671       3.12347976      -7.91032370
H        6.74228323       3.61028089      -7.98909712
H        8.10936110       7.12676042      -9.08606998
H        6.50503519       6.41458038      -8.85775191
H        8.66197386       6.96137113      -6.76796258
H        7.08263437       7.69608285      -6.86830453
H       10.64794690       4.30484327     -11.13461552
H       12.07375893       5.77498747     -12.52124465
H        8.71805483       8.40443603     -13.19307831
H        7.28107797       6.92562919     -11.82820923
O       -3.88172362      -5.90041584      -4.19652144
C       -4.93313005      -5.36842057      -4.54703393
N       -5.32671141      -4.07787987      -4.17595112
N       -4.63622732      -3.29329180      -3.28627322
C       -3.34640222      -3.25016296      -3.42132634
C       -2.49974743      -2.45389194      -2.51173998
C       -3.01775294      -1.91432727      -1.32995793
C       -2.20421304      -1.12799358      -0.51122686
C       -0.88192227      -0.88192227      -0.88192227
C       -0.35894505      -1.42750845      -2.05467082
C       -1.16810531      -2.22200575      -2.87038242
C       -6.02409319      -6.08803553      -5.35980451
N       -5.52273846      -6.92042635      -6.48334826
C       -4.64431565      -8.03219100      -6.07143510
C       -5.32909682      -9.04779997      -5.15408459
N       -6.57657403      -9.60452958      -5.78003744
C       -7.45418584      -8.57217088      -6.41896681
C       -6.65536898      -7.52478655      -7.21951805
S       -7.39206559     -10.64102132      -4.69306192
O       -6.39808788     -11.51861119      -4.11524453
O       -8.24863279      -9.82690488      -3.85611869
C       -8.41401545     -11.61238626      -5.77064537
C       -7.89175145     -12.77423031      -6.34396879
C       -8.69733390     -13.55650231      -7.17144912
C      -10.01792183     -13.17186948      -7.41526389
Br     -11.10558165     -14.22759333      -8.54461929
C      -10.54391215     -12.01969632      -6.82961466
C       -9.74534939     -11.23944546      -5.99290389
H       -6.32015360      -3.86734931      -4.19529328
H       -2.82024890      -3.76532528      -4.24419463
H       -4.04982826      -2.10226496      -1.04429560
H       -2.61188997      -0.70908996       0.40503230
H        0.67100422      -1.23540527      -2.34472963
H       -0.75756908      -2.63904729      -3.78668574
H       -6.67930839      -5.31914202      -5.79133881
H       -6.62819772      -6.65401909      -4.64203598
H       -3.71853999      -7.67221860      -5.61713297
H       -4.30566281      -8.55215933      -6.97957670
H       -4.62527067      -9.87048072      -4.98347878
H       -5.56229805      -8.59455831      -4.18480488
H       -8.13967280      -9.07051677      -7.11200193
H       -8.05555839      -8.06216427      -5.65964482
H       -6.26273371      -7.99903466      -8.12953921
H       -7.33418719      -6.73923047      -7.57360408
H       -6.86390063     -13.07624429      -6.14726077
H       -8.29168530     -14.46186124      -7.61644451
H      -11.57536996     -11.72696378      -7.01323544
H      -10.16056472     -10.35071823      -5.52363344
O       -3.86303060       5.89670845       4.21892185
C       -4.92405308       5.37261186       4.55191961
N       -5.32764891       4.09068320       4.16221030
N       -4.63598518       3.30829643       3.27151073
C       -3.34829303       3.24935106       3.42024743
C       -2.50038484       2.45376571       2.51122881
C       -3.01112250       1.93301663       1.31789901
C       -2.19722581       1.14673668       0.49947099
C       -0.88192227       0.88192227       0.88192227
C       -0.36604690       1.40873616       2.06634125
C       -1.17544118       2.20316324       2.88188906
C       -6.01600631       6.09533047       5.36059645
N       -5.51805091       6.90969522       6.49876693
C       -4.62293480       8.01608815       6.10891879
C       -5.28627050       9.04926947       5.19544142
N       -6.53443274       9.61291613       5.81379219
C       -7.43038842       8.58341477       6.43152035
C       -6.65208200       7.51847842       7.22911316
S       -7.32634779      10.67029532       4.72950571
O       -6.31642115      11.54308147       4.17244097
O       -8.18245708       9.87500040       3.87419887
C       -8.34947215      11.64105485       5.80652008
C       -7.82087223      12.79064892       6.39842940
C       -8.62695435      13.57268303       7.22564795
C       -9.95431943      13.20009594       7.45063983
Br     -11.04279380      14.25536532       8.57963515
C      -10.48640188      12.06034850       6.84647275
C       -9.68721377      11.28051478       6.00997019
H       -6.32349911       3.89100839       4.16828869
H       -2.82568730       3.74955586       4.25452566
H       -4.03783033       2.13554382       1.02301467
H       -2.59927334       0.74248856      -0.42581427
H        0.65844048       1.20201930       2.36555186
H       -0.77055566       2.60551724       3.80722921
H       -6.68439089       5.32907000       5.77632833
H       -6.60583657       6.67585049       4.64256573
H       -3.69617977       7.65086354       5.66084826
H       -4.28870166       8.52224511       7.02645207
H       -4.57158997       9.86590179       5.04173841
H       -5.51365178       8.60933099       4.21867847
H       -8.11801658       9.08170055       7.12247437
H       -8.02885387       8.08850256       5.66001106
H       -6.26439653       7.97830004       8.14861101
H       -7.34338900       6.73667119       7.56696155
H       -6.78764037      13.08336333       6.21640199
H       -8.21634878      14.46853032       7.68511195
H      -11.52299279      11.77709835       7.01547804
H      -10.10693224      10.40167036       5.52631379
O        5.41887910      -3.41551407       5.14426772
C        4.95706846      -4.53487116       5.35664494
N        3.72818024      -4.98814262       4.86421954
N        2.84104841      -4.19837871       4.17636522
C        3.33403860      -3.42760812       3.25624480
C        2.47779774      -2.52289231       2.46468930
C        1.15080154      -2.27853003       2.83270658
C        0.35158779      -1.45252004       2.03932565
C        0.88192227      -0.88192227       0.88192227
C        2.20840501      -1.11498588       0.51773343
C        3.01238669      -1.93332864       1.31477815
C        5.61604645      -5.56712740       6.28875938
N        7.09008792      -5.68699975       6.14942540
C        7.83289431      -4.45136253       6.46368491
C        7.64937506      -3.97518341       7.90642291
N        8.02282683      -5.04521646       8.89309776
C        7.48614563      -6.40272848       8.55644942
C        7.60770580      -6.73564893       7.05631886
S        7.69454601      -4.53937581      10.49222700
O        8.20989718      -3.19468936      10.62735705
O        6.30826659      -4.84199183      10.78139794
C        8.72100645      -5.61466750      11.46137312
C       10.04536664      -5.24974679      11.71483711
C       10.85049484      -6.07745793      12.49733256
C       10.32335684      -7.26007659      13.02162176
Br      11.41831629      -8.38572315      14.07375482
C        8.99574806      -7.61621536      12.78125972
C        8.18335371      -6.78653222      12.00781281
H        3.27217865      -5.74392706       5.36669049
H        4.40462178      -3.43919676       2.98595028
H        0.73664663      -2.72767721       3.73206498
H       -0.67964983      -1.26735339       2.32824406
H        2.62209775      -0.67155021      -0.38451729
H        4.04338579      -2.11720786       1.02270845
H        5.18577229      -6.55018377       6.05383315
H        5.29972776      -5.31701313       7.30751190
H        7.59755931      -3.64625709       5.76407518
H        8.90191425      -4.64428513       6.29119947
H        8.30787252      -3.11239988       8.05895777
H        6.61784034      -3.64849849       8.07532241
H        8.05401328      -7.15552434       9.11265388
H        6.43692495      -6.48205001       8.85839252
H        8.66600220      -6.90847184       6.81683354
H        7.10617631      -7.68945324       6.85139219
H       10.45268547      -4.32384899      11.31087122
H       11.88085865      -5.79283534      12.69629706
H        8.58444919      -8.53288078      13.19823920
H        7.14426596      -7.05617298      11.83447744
