129
Properties=species:S:1:pos:R:3 pbc="F F F"
C        0.00000000       0.00000000       0.00000000
O        8.14523219      -1.56597527      -1.06534092
C        6.92449145      -1.49329606      -1.18223249
N        6.30250921      -0.28066668      -1.40876781
N        4.95155932      -0.12691555      -1.43918061
C        4.53638335       1.05043674      -1.78588651
C        3.09395086       1.38390932      -1.77140173
C        2.24269679       0.58240982      -0.98775912
C        0.88358207       0.88358207      -0.88358207
C        0.36959149       1.97845386      -1.56972033
O       -0.95614802       2.31042517      -1.48617255
C        1.20690591       2.76692518      -2.36253786
O        0.61258979       3.82047177      -3.01586832
C        2.57350700       2.48277540      -2.46926822
C        6.08954667      -2.71124774      -1.09390558
C        5.11413843      -2.80471061      -0.08947680
C        4.31800937      -3.94635703       0.01217703
C        4.50471250      -5.00515378      -0.87480544
C        5.48624201      -4.92281964      -1.86566653
C        6.28151578      -3.77752372      -1.98009870
Cl       7.43585475      -3.73504586      -3.26358585
H        6.91830422       0.52010557      -1.50832774
H        5.24848764       1.83626405      -2.08845296
H        2.64635688      -0.26991478      -0.44325506
H       -1.06491143       3.10286625      -2.04863455
H        1.29916747       4.26480809      -3.54898807
H        4.96842050      -1.98320519       0.60762399
H        3.55333200      -4.01019399       0.78186960
H        3.88515847      -5.89662915      -0.79838755
H        5.62259349      -5.75543105      -2.55294781
C        3.38096605       3.32296206      -3.31525655
C        4.05721300       4.02661839      -4.02377178
Br       5.15064712       5.16437116      -5.16938099
O       -7.56632994       2.47876454      -2.55703243
C       -6.36851952       2.22149097      -2.46639934
N       -5.92302090       0.91450281      -2.42209225
N       -4.62273628       0.57391145      -2.21499954
C       -4.35727964      -0.68939321      -2.32603375
C       -3.00242406      -1.21106424      -2.03577361
C       -2.14983447      -0.41924543      -1.24378583
C       -0.88358207      -0.88358207      -0.88358207
C       -0.46176538      -2.13401933      -1.32198098
O        0.76977367      -2.62717751      -0.98304586
C       -1.29738815      -2.91648045      -2.12250034
O       -0.79495122      -4.13230575      -2.52167291
C       -2.57332676      -2.46816478      -2.48405908
C       -5.36993557       3.31163550      -2.41390444
C       -4.53933980       3.42950588      -1.28907070
C       -3.59271498       4.45251182      -1.21927215
C       -3.48441640       5.37156340      -2.26151115
C       -4.32108146       5.26757893      -3.37558637
C       -5.26569897       4.23884747      -3.45723927
Cl      -6.22476900       4.15081893      -4.89044467
H       -6.63921140       0.20031028      -2.50783641
H       -5.13736909      -1.40817258      -2.62766297
H       -2.48308360       0.55632252      -0.89293608
H        0.82676491      -3.50659463      -1.40675965
H       -1.46391137      -4.55756902      -3.09148323
H       -4.62375086       2.71773078      -0.47157124
H       -2.94063626       4.53286267      -0.35349483
H       -2.74689121       6.17021417      -2.21023984
H       -4.22708837       5.99049336      -4.18351524
C       -3.38072324      -3.31377003      -3.32469139
C       -4.05691778      -4.02196444      -4.02872096
Br      -5.15026717      -5.16705489      -5.16707721
O       -7.55839638      -2.48661923       2.57282068
C       -6.36113594      -2.22760769       2.47989964
N       -5.91776386      -0.91999280       2.43283927
N       -4.61834344      -0.57768592       2.22316686
C       -4.35470022       0.68620717       2.33179920
C       -3.00112443       1.20954815       2.03858934
C       -2.14853525       0.41782451       1.24650597
C       -0.88358207       0.88358207       0.88358207
C       -0.46304482       2.13536830       1.31935257
O        0.76718316       2.62992626       0.97770660
C       -1.29863910       2.91777433       2.11995550
O       -0.79748897       4.13501360       2.51642731
C       -2.57330154       2.46802462       2.48422446
C       -5.36092213      -3.31626382       2.42754620
C       -4.53190956      -3.43459879       1.30159385
C       -3.58378754      -4.45622531       1.23191308
C       -3.47240674      -5.37346512       2.27542253
C       -4.30748364      -5.26904249       3.39064775
C       -5.25358874      -4.24166866       3.47217068
Cl      -6.21054401      -4.15289216       4.90674289
H       -6.63494134      -0.20679194       2.51858812
H       -5.13544467       1.40423409       2.63352589
H       -2.48080003      -0.55881627       0.89771342
H        0.82345640       3.51009721       1.39994857
H       -1.46622151       4.56012151       3.08662060
H       -4.61872391      -2.72424392       0.48311134
H       -2.93294375      -4.53691372       0.36523839
H       -2.73370763      -6.17103628       2.22424552
H       -4.21108479      -5.99053666       4.19956212
C       -3.38070592       3.31368206       3.32479668
C       -4.05690709       4.02192017       4.02877592
Br      -5.15026718       5.16708129       5.16705081
O        7.56420502       2.48087561       2.56126842
C        6.36654153       2.22313531       2.47002166
N        5.92161294       0.91597824       2.42497563
N        4.62155953       0.57492607       2.21719092
C        4.35658896      -0.68853711       2.32758052
C        3.00207604      -1.21065684       2.03652904
C        2.14948653      -0.41886357       1.24451562
C        0.88358207      -0.88358207       0.88358207
C        0.46210803      -2.13438186       1.32127579
O       -0.76907989      -2.62791622       0.98161336
C        1.29772319      -2.91682819       2.12181757
O        0.79563087      -4.13303346       2.52026555
C        2.57332004      -2.46812714       2.48410343
C        5.36752009       3.31288077       2.41756520
C        4.53734899       3.43087538       1.29243101
C        3.59032227       4.45351148       1.22266451
C        3.48119665       5.37207763       2.26524512
C        4.31743572       5.26797603       3.37962920
C        5.26245254       4.23960857       3.46124679
Cl       6.22095528       4.15137989       4.89481935
H        6.63806841       0.20205162       2.51072074
H        5.13685428      -1.40711469       2.62923567
H        2.48247204       0.55699268       0.89421781
H       -0.82587883      -3.50753593       1.40493227
H        1.46453004      -4.55825496       3.09017863
H        4.62240492       2.71948081       0.47466721
H        2.93857480       4.53395256       0.35664618
H        2.74335635       6.17043893       2.21399946
H        4.22279710       5.99050993       4.18782307
C        3.38071862      -3.31374641       3.32471963
C        4.05691493      -4.02195255       4.02873570
Br       5.15026717      -5.16706198       5.16707013
