142
Properties=species:S:1:pos:R:3 pbc="F F F"
O        9.05513622      -0.65607125      -1.97524494
C        7.83439548      -0.58339204      -2.09213652
N        7.21241323       0.62923734      -2.31867183
N        5.86146334       0.78298848      -2.34908463
C        5.44628737       1.96034076      -2.69579053
C        4.00385489       2.29381335      -2.68130576
C        3.15260082       1.49231384      -1.89766314
C        1.79348609       1.79348609      -1.79348609
C        1.27949552       2.88835789      -2.47962435
O       -0.04624400       3.22032919      -2.39607657
C        2.11680993       3.67682920      -3.27244188
O        1.52249382       4.73037579      -3.92577235
C        3.48341103       3.39267943      -3.37917224
Br       4.54975230       4.50224123      -4.49639581
C        6.99945070      -1.80134372      -2.00380960
C        6.02404246      -1.89480659      -0.99938082
C        5.22791339      -3.03645301      -0.89772700
C        5.41461652      -4.09524976      -1.78470946
C        6.39614603      -4.01291562      -2.77557055
C        7.19141981      -2.86761970      -2.89000273
Cl       8.34575877      -2.82514184      -4.17348988
H        7.82820825       1.43000959      -2.41823176
H        6.15839166       2.74616807      -2.99835698
H        3.55626091       0.63998925      -1.35315909
H       -0.15500740       4.01277028      -2.95853857
H        2.20907149       5.17471211      -4.45889210
H        5.87832453      -1.07330116      -0.30228003
H        4.46323603      -3.10028996      -0.12803442
H        4.79506250      -4.98672512      -1.70829158
H        6.53249751      -4.84552702      -3.46285183
O       -4.34745751       1.94972060      -7.97657299
C       -3.62360524       1.41855476      -7.13808948
N       -4.05219945       0.31611507      -6.42423802
N       -3.33692590      -0.24428456      -5.41232600
C       -3.82534842      -1.34435388      -4.93271636
C       -3.19989067      -2.01101111      -3.76807222
C       -2.36242411      -1.23886365      -2.94129004
C       -1.79348609      -1.79348609      -1.79348609
C       -2.05045283      -3.12239992      -1.47462500
O       -1.51722418      -3.69959772      -0.35333987
C       -2.86702002      -3.89791973      -2.30114127
O       -3.05627525      -5.20454255      -1.91782415
C       -3.45198566      -3.35297176      -3.45030527
Br      -4.53289189      -4.48233866      -4.53315880
C       -2.26478021       1.94365999      -6.88079636
C       -1.93846091       2.40691935      -5.59707514
C       -0.66282710       2.90835399      -5.33471427
C        0.28448845       2.96684476      -6.35540943
C       -0.04193495       2.52216982      -7.63903584
C       -1.31548514       2.00898094      -7.90729864
Cl      -1.62100633       1.43318451      -9.50628499
H       -4.97232354      -0.03717524      -6.66695082
H       -4.72593153      -1.80406208      -5.37292311
H       -2.16793740      -0.19566253      -3.18580931
H       -1.84065120      -4.62239283      -0.35325742
H       -3.61779100      -5.63339356      -2.59149115
H       -2.67588660       2.36771070      -4.79912751
H       -0.40800052       3.25296513      -4.33594510
H        1.28028594       3.35695071      -6.15386560
H        0.70596920       2.57212511      -8.42791662
O        1.96974947       7.94116790       4.40289148
C        1.43798398       7.10972155       3.67140238
N        0.32919833       6.39968226       4.08983847
N       -0.23281467       5.39492885       3.36579293
C       -1.33825986       4.91877735       3.84538145
C       -2.00788169       3.76139154       3.20970076
C       -1.23567264       2.93497510       2.37193005
C       -1.79348609       1.79348609       1.79348609
C       -3.12557561       1.48065058       2.04125156
O       -3.70601604       0.36560706       1.49853867
C       -3.90104125       2.30693649       2.85810327
O       -5.21082020       1.92989940       3.03792235
C       -3.35298421       3.44975042       3.45252807
Br      -4.48233876       4.53287547       4.53317512
C        1.96925424       6.85706651       2.31410431
C        2.42717359       5.57260773       1.98318256
C        2.93427952       5.31455411       0.70891279
C        3.00376605       6.34016911      -0.23232683
C        2.56442943       7.62442834       0.09880206
C        2.04561419       7.88846119       1.37095584
Cl       1.47703486       9.48892186       1.68221981
H       -0.02788500       6.63923948       5.00932513
H       -1.80054757       5.35652766       4.74584149
H       -0.19005139       3.17472415       2.18463370
H       -4.63059539       0.36889380       1.81681225
H       -5.63905031       2.60281939       3.60080599
H        2.37938628       4.77079498       2.71589470
H        3.27474177       4.31530499       0.45041726
H        3.39831740       6.14199498      -1.22704863
H        2.62297123       8.41717269      -0.64437914
O        0.64197695      -9.25685134       0.47548162
C        0.92836421      -8.06932058       0.34545517
N        1.41678757      -7.33479759       1.40873725
N        1.64796141      -5.99587909       1.34969595
C        2.22147976      -5.48686806       2.39407085
C        2.44808425      -4.02782840       2.50306135
C        1.67063094      -3.18031108       1.69163579
C        1.79348609      -1.79348609       1.79348609
C        2.69995094      -1.25021730       2.69730951
O        2.84330418       0.10483323       2.83169082
C        3.48624468      -2.08719333       3.49264300
O        4.36486544      -1.46569395       4.34808257
C        3.36749539      -3.47949746       3.40826985
Br       4.49025617      -4.54788984       4.51024334
C        0.76645156      -7.39848299      -0.96301797
C       -0.10313572      -6.30246595      -1.07071354
C       -0.27160121      -5.65756803      -2.29677944
C        0.41145783      -6.11495345      -3.42233506
C        1.26525476      -7.21636735      -3.32282114
C        1.44690518      -7.86189178      -2.09499412
Cl       2.55850376      -9.18237081      -2.04676777
H        1.55507308      -7.84764296       2.27373356
H        2.54365257      -6.12692100       3.23234315
H        0.95435594      -3.60511311       0.98994019
H        3.52920317       0.23015315       3.51725142
H        4.86425359      -2.16082661       4.81759550
H       -0.64171993      -5.94539173      -0.19636840
H       -0.93451105      -4.79979546      -2.37430392
H        0.28252922      -5.61389828      -4.37979854
H        1.79376395      -7.56423534      -4.20817697
C       -0.00445707       0.01189536      -1.78238275
H       -0.66409135       0.67374010      -2.43557963
H        0.65740317      -0.63156657      -2.45157240
C       -0.90989263      -0.90692880      -0.91072765
C        0.90977584       0.90977584      -0.90977584
C       -0.00465871       1.77757030       0.00794375
H       -0.66225468       2.44313916      -0.64384735
H        0.64322798       2.43503045       0.67728295
C       -1.78241447       0.00034974      -0.00472694
H       -2.45427497      -0.65498947       0.64260836
H       -2.43311707       0.67328779      -0.65473579
C       -0.91132561       0.90220522       0.91563759
C       -0.01476271      -0.02253852       1.78660255
H       -0.67934791      -0.69751639       2.42135241
H        0.63392994       0.61504881       2.47327442
C        0.01484550      -1.77751727      -0.01636693
H        0.67870853      -2.42144646      -0.68295456
H       -0.62264859      -2.45592969       0.64226336
C        1.78714474       0.01002794       0.00389507
H        2.44202412       0.67113390       0.66197326
H        2.45385902      -0.65136977      -0.64189061
C        0.91606151      -0.90478549       0.90901405
