153
Properties=species:S:1:pos:R:3 pbc="F F F"
C        0.00000000       0.00000000       0.00000000
O        6.49043907       6.49201575      -4.09692126
C        5.83282315       5.82957067      -3.29357261
N        4.84847413       4.96625310      -3.71929556
N        4.07685850       4.27309845      -2.84125945
C        3.37230430       3.31080472      -3.34294818
C        2.49906911       2.48198357      -2.48700545
C        2.21009207       2.87414361      -1.17481163
C        1.39538390       2.07343272      -0.37185424
C        0.88178234       0.88178234      -0.88178234
C        1.16951674       0.48591443      -2.18904706
C        1.97715671       1.29038650      -2.99817277
C        6.04516637       5.91592022      -1.79026966
C        7.43412679       6.43182525      -1.44470581
C        8.47599385       5.39651509      -1.83297911
O        8.71513384       4.44670619      -1.09415639
N        9.04668748       5.64847700      -3.06535697
C        9.99411407       4.86601008      -3.75381013
C       10.37983422       3.58365984      -3.35741688
C       11.31747843       2.86186990      -4.10364803
C       11.89010484       3.42366196      -5.24270599
C       11.51062791       4.70308715      -5.63767410
Br      12.29974645       5.48314541      -7.16920128
C       10.55920459       5.41906787      -4.90952278
H        4.72652425       4.85299779      -4.72012431
H        3.41448253       3.05294347      -4.41688427
H        2.61460759       3.80028915      -0.77203169
H        1.17369387       2.38531728       0.64567462
H        0.77484959      -0.44785450      -2.58207019
H        2.20427633       0.96833454      -4.01101578
H        5.90379285       4.93228477      -1.32935006
H        5.28736687       6.59681118      -1.38715221
H        7.51735568       6.59772852      -0.36423409
H        7.64289127       7.39306536      -1.92719678
H        8.71285800       6.47499684      -3.55504881
H        9.95050318       3.10676729      -2.48130394
H       11.59803335       1.85938926      -3.78998260
H       12.62562333       2.85984701      -5.80966291
H       10.27722755       6.41712136      -5.23395285
O       -6.14415096      -6.79363413      -4.14159099
C       -5.46607151      -6.14964495      -3.34024997
N       -4.67035785      -5.10637311      -3.75729182
N       -3.87346621      -4.42517348      -2.89257670
C       -3.37581017      -3.31564628      -3.33460075
C       -2.49947801      -2.48382115      -2.48475897
C       -1.97670790      -2.99228699      -1.29005242
C       -1.16193480      -2.18983529      -0.48890077
C       -0.88178234      -0.88178234      -0.88178234
C       -1.40308745      -0.37011900      -2.07127178
C       -2.21134149      -1.17446264      -2.87991185
C       -5.44622040      -6.45455148      -1.85058437
C       -6.69440670      -7.20526373      -1.41098741
C       -7.90354795      -6.29089206      -1.51104804
O       -8.15111951      -5.48640863      -0.61846827
N       -8.61008622      -6.46538202      -2.68505321
C       -9.73807982      -5.74767259      -3.12818186
C      -10.22093247      -4.59486165      -2.50511681
C      -11.34003276      -3.92800654      -3.01495706
C      -11.99592745      -4.41861414      -4.14193119
C      -11.51936468      -5.56963668      -4.76238780
Br     -12.41697323      -6.25629970      -6.27882021
C      -10.39008748      -6.22651952      -4.27118825
H       -4.70965979      -4.85145606      -4.73853052
H       -3.60498791      -2.93332677      -4.34599559
H       -2.19875356      -4.01048809      -0.97768678
H       -0.75792613      -2.59210979       0.43669939
H       -1.19025728       0.65291031      -2.37171831
H       -2.62128276      -0.76358517      -3.79875873
H       -5.36478996      -5.52682617      -1.27381156
H       -4.55839224      -7.06403000      -1.64890801
H       -6.59895174      -7.51628954      -0.36407701
H       -6.84791834      -8.11803531      -1.99719975
H       -8.24909812      -7.16657117      -3.32723436
H       -9.73299327      -4.17515875      -1.63042239
H      -11.69636372      -3.02423647      -2.52680502
H      -12.87082385      -3.90016792      -4.52414148
H      -10.03447525      -7.12438237      -4.76944414
O       -4.66806848       5.14600995       7.26529764
C       -3.89672955       4.40812853       6.65110835
N       -4.05445623       4.17638986       5.30317670
N       -3.24582958       3.31965998       4.62572684
C       -3.31541138       3.37569987       3.33494595
C       -2.48028641       2.49781813       2.48995358
C       -1.79432356       1.41415815       3.05056561
C       -0.99642574       0.60152349       2.24272162
C       -0.88178234       0.88178234       0.88178234
C       -1.56231021       1.96292664       0.31924137
C       -2.36930323       2.77242479       1.12398797
C       -2.73144053       3.69789062       7.32202510
C       -2.30892594       4.39514318       8.60658872
C       -1.68662006       5.74143514       8.27743284
O       -0.51322498       5.81577006       7.92700136
N       -2.58238747       6.78667695       8.39145702
C       -2.36123599       8.14784842       8.10484987
C       -1.21459021       8.63359615       7.47272457
C       -1.07468203      10.00014462       7.20816971
C       -2.07270287      10.89431469       7.58945523
C       -3.21460268      10.41346799       8.22331848
Br      -4.56416185      11.62236489       8.76556640
C       -3.36947519       9.04845255       8.46986750
H       -4.79266186       4.68205071       4.82493379
H       -3.97506138       4.09417442       2.81507446
H       -1.87677026       1.19678437       4.11337379
H       -0.46810063      -0.23948397       2.68471987
H       -1.46496759       2.18478821      -0.74069052
H       -2.88659507       3.61822362       0.67880797
H       -1.87373791       3.64934202       6.64234776
H       -3.05161933       2.67421066       7.54550025
H       -1.55212923       3.79825113       9.12893793
H       -3.14870310       4.51437748       9.30007282
H       -3.52738956       6.54018059       8.67533350
H       -0.41821927       7.96877801       7.15157714
H       -0.18218855      10.36177093       6.70344572
H       -1.95026643      11.95517269       7.38969412
H       -4.26814250       8.69321809       8.96694118
O        5.36810109      -4.50224521       7.20902979
C        4.63805987      -3.72505241       6.59285414
N        4.41618707      -3.87541280       5.24242293
N        3.65977059      -2.99188762       4.53955818
C        3.30744999      -3.36636982       3.35223738
C        2.47921691      -2.49417492       2.49466629
C        2.27554345      -1.15117436       2.83232950
C        1.47797592      -0.34202675       2.02066819
C        0.88178234      -0.88178234       0.88178234
C        1.08043526      -2.22121816       0.54282480
C        1.88614191      -3.03104209       1.34853199
C        3.94035282      -2.55040730       7.26059614
C        3.78999562      -2.76075647       8.75990577
C        2.80001748      -3.88281543       9.02265513
O        1.59267403      -3.66637936       8.99694302
N        3.41664769      -5.09860363       9.24527012
C        2.80589057      -6.34978316       9.45826054
C        1.43917831      -6.58626775       9.29546488
C        0.90886902      -7.86263930       9.51148804
C        1.73841169      -8.90891388       9.90914722
C        3.10015333      -8.67505395      10.07618187
Br       4.23027464     -10.08343054      10.63838796
C        3.63825852      -7.40897058       9.84056614
H        4.82855100      -4.68327812       4.78781724
H        3.58482063      -4.35536794       2.94412169
H        2.73426351      -0.72881885       3.72384607
H        1.32578828       0.70060238       2.28815062
H        0.60785024      -2.64238076      -0.34116571
H        2.02605772      -4.07537810       1.08219084
H        2.94950209      -2.39627003       6.81965557
H        4.54383534      -1.65567305       7.07182186
H        3.39557797      -1.85278321       9.23095711
H        4.75216316      -2.97116157       9.23982868
H        4.43304766      -5.10067024       9.20918575
H        0.76060563      -5.80016656       8.97780223
H       -0.15504521      -8.03451882       9.36793159
H        1.31575366      -9.89413756      10.08524202
H        4.70397619      -7.24669080       9.97763477
