161
Properties=species:S:1:pos:R:3 pbc="F F F"
C        0.00000000       0.00000000       0.00000000
O        6.49043907       6.49201575      -4.09692126
C        5.83282315       5.82957067      -3.29357261
N        4.84847413       4.96625310      -3.71929556
N        4.07685850       4.27309845      -2.84125945
C        3.37230430       3.31080472      -3.34294818
C        2.49906911       2.48198357      -2.48700545
C        2.21009207       2.87414361      -1.17481163
C        1.39538390       2.07343272      -0.37185424
C        0.88178234       0.88178234      -0.88178234
C        1.16951674       0.48591443      -2.18904706
C        1.97715671       1.29038650      -2.99817277
C        6.04516637       5.91592022      -1.79026966
C        7.43412679       6.43182525      -1.44470581
C        8.47599385       5.39651509      -1.83297911
O        8.71513384       4.44670619      -1.09415639
N        9.04668748       5.64847700      -3.06535697
C        9.99411407       4.86601008      -3.75381013
C       10.37983422       3.58365984      -3.35741688
C       11.31747843       2.86186990      -4.10364803
C       11.89010484       3.42366196      -5.24270599
C       11.51062791       4.70308715      -5.63767410
C       10.55920459       5.41906787      -4.90952278
H        4.72652425       4.85299779      -4.72012431
H        3.41448253       3.05294347      -4.41688427
H        2.61460759       3.80028915      -0.77203169
H        1.17369387       2.38531728       0.64567462
H        0.77484959      -0.44785450      -2.58207019
H        2.20427633       0.96833454      -4.01101578
H        5.90379285       4.93228477      -1.32935006
H        5.28736687       6.59681118      -1.38715221
H        7.51735568       6.59772852      -0.36423409
H        7.64289127       7.39306536      -1.92719678
H        8.71285800       6.47499684      -3.55504881
H        9.95050318       3.10676729      -2.48130394
H       11.59803335       1.85938926      -3.78998260
H       12.62562333       2.85984701      -5.80966291
H       10.27722755       6.41712136      -5.23395285
C       12.11146808       5.29702876      -6.80378920
C       12.61467173       5.79445486      -7.78041061
Br      13.42830946       6.59875079      -9.35952482
O       -5.78374540      -7.02793935      -4.26769133
C       -5.08420444      -6.39847517      -3.47328682
N       -4.48887022      -5.21075589      -3.83439668
N       -3.66827772      -4.53585174      -2.98708693
C       -3.37741417      -3.32175497      -3.32688807
C       -2.49933541      -2.48590094      -2.48282177
C       -1.75585858      -3.05874896      -1.44443977
C       -0.94148339      -2.25441051      -0.64477695
C       -0.88178234      -0.88178234      -0.88178234
C       -1.62348074      -0.30622745      -1.91477004
C       -2.43226862      -1.11059219      -2.72285517
C       -4.81846750      -6.87801381      -2.05487495
C       -5.89108353      -7.84449103      -1.57508329
C       -7.20526171      -7.10335159      -1.39687474
O       -7.42206822      -6.45715718      -0.37677101
N       -8.04260304      -7.22980582      -2.48811259
C       -9.30102017      -6.62842305      -2.68449105
C       -9.82950383      -5.63991694      -1.85149017
C      -11.08229642      -5.07906745      -2.12163249
C      -11.82450635      -5.51477628      -3.21719015
C      -11.30205620      -6.50272705      -4.04660590
C      -10.04310137      -7.05006533      -3.79462854
H       -4.69631145      -4.84543217      -4.75790274
H       -3.79126472      -2.85417688      -4.23886866
H       -1.80531600      -4.12857556      -1.25303687
H       -0.36544115      -2.70656049       0.15866512
H       -1.58199895       0.76558873      -2.09265507
H       -3.01424833      -0.65164996      -3.51772837
H       -4.77142133      -6.02587074      -1.36813562
H       -3.84313745      -7.37710618      -2.05108663
H       -5.61238264      -8.26512620      -0.60180946
H       -6.01210697      -8.69088871      -2.26015772
H       -7.69193549      -7.78933372      -3.26163444
H       -9.27897649      -5.26646671      -0.99313122
H      -11.47483339      -4.30095550      -1.47161632
H      -12.80127115      -5.08116205      -3.41270004
H       -9.65341165      -7.82123469      -4.45365542
C      -12.07125714      -6.97056442      -5.17046448
C      -12.71546293      -7.36237823      -6.11169604
Br     -13.75708920      -7.99590801      -7.63358786
O       -4.14990141       6.11154310       6.81793156
C       -3.34899932       5.43152828       6.17543883
N       -3.76280603       4.65378626       5.11743050
N       -2.89952783       3.85464886       4.43703970
C       -3.33386499       3.37603488       3.31615733
C       -2.48456810       2.49948722       2.48400281
C       -1.30267988       1.95586825       3.00049918
C       -0.50167814       1.14111303       2.19787969
C       -0.88178234       0.88178234       0.88178234
C       -2.05843264       1.42391115       0.36213444
C       -2.86702443       2.23221759       1.16647397
C       -1.86355953       5.38959500       6.49820172
C       -1.41808123       6.62302746       7.26954916
C       -1.49212098       7.84435980       6.36900727
O       -0.58673840       8.09068686       5.57857115
N       -2.65949460       8.56314432       6.53788253
C       -3.07996463       9.70517625       5.82879339
C       -2.43689447      10.19431605       4.68970041
C       -2.92480156      11.32765921       4.03053560
C       -4.04966656      11.99137684       4.51542938
C       -4.69002999      11.50851559       5.65284357
C       -4.22076180      10.36534842       6.30168503
H       -4.74027484       4.70828847       4.85108305
H       -4.33760121       3.62230826       2.92440079
H       -1.00021286       2.16162475       4.02509081
H        0.41390043       0.72084993       2.60638703
H       -2.34881054       1.22728057      -0.66702583
H       -3.77567237       2.65843391       0.74952037
H       -1.27642449       5.31236541       5.57663779
H       -1.68024511       4.49198852       7.09909662
H       -0.37632658       6.51088727       7.59210444
H       -2.01359188       6.77262599       8.17693553
H       -3.31462397       8.20158812       7.22669156
H       -1.56309966       9.70077608       4.27469868
H       -2.42123662      11.68892630       3.13724228
H       -4.41476793      12.87717094       4.00319438
H       -4.73434746      10.00499651       7.18895779
C       -5.84260031      12.19972802       6.16995772
C       -6.80787795      12.77861843       6.60304082
Br      -8.36865025      13.71463526       7.30329956
O        4.12163515      -6.23655835       6.72118258
C        3.31926914      -5.56395613       6.07274115
N        3.74336127      -4.71749573       5.07316579
N        2.87473397      -3.92708602       4.38939641
C        3.33672985      -3.37508103       3.31424633
C        2.48531798      -2.49942624       2.48331390
C        1.25582311      -2.03676110       2.96646311
C        0.45422901      -1.22195833       2.16448351
C        0.88178234      -0.88178234       0.88178234
C        2.10612459      -1.34305010       0.39530354
C        2.91489925      -2.15115090       1.19966583
C        1.82020480      -5.60649286       6.32465859
C        1.39987936      -6.89517788       7.01560060
C        1.57466019      -8.06665229       6.06417556
O        0.71983001      -8.31596503       5.22020137
N        2.76646432      -8.73800816       6.25604896
C        3.27419249      -9.82362170       5.51612008
C        2.70899300     -10.28615263       4.32576531
C        3.28127548     -11.36239906       3.63932182
C        4.41337588     -11.99610861       4.14698830
C        4.97625697     -11.53988589       5.33524629
C        4.42257246     -10.45247449       6.01274829
H        4.73359703      -4.71373578       4.85231355
H        4.36827844      -3.55536209       2.96066973
H        0.91661885      -2.30575074       3.96455884
H       -0.49857545      -0.86481319       2.54709878
H        2.43392097      -1.08350349      -0.60835918
H        3.86146820      -2.51414676       0.80801169
H        1.27327662      -5.51189308       5.38025799
H        1.56596123      -4.74853534       6.95683368
H        0.34010606      -6.84713010       7.29208213
H        1.95933085      -7.06090860       7.94291396
H        3.37071574      -8.38037252       6.99181538
H        1.83242019      -9.81401364       3.89214059
H        2.83769328     -11.70281506       2.70689687
H        4.84432298     -12.83817156       3.61263871
H        4.87647576     -10.11221599       6.93961001
C        6.13584360     -12.20130974       5.87513271
C        7.10699740     -12.75525221       6.32728759
Br       8.67727096     -13.65093033       7.05838378
