189
Properties=species:S:1:pos:R:3 pbc="F F F"
C        0.00000000       0.00000000       0.00000000
O        6.95102832      -1.56682789      -0.38628526
C        7.15860227      -1.03586571      -1.47797159
N        6.24992808      -0.28719787      -2.20164979
N        4.98558194      -0.07268090      -1.73451239
C        4.37015877       0.90059211      -2.32554866
C        2.98182947       1.30154543      -1.99116234
C        2.19330609       0.49500198      -1.16051857
C        0.88135842       0.88135842      -0.88135842
C        0.36157894       2.06762534      -1.40009634
C        1.15601472       2.88304562      -2.20719503
C        2.45735615       2.48889476      -2.52478972
O        3.30716544       3.27867768      -3.33545157
C        2.80989388       4.00799694      -4.40479224
O        1.63994005       4.14653386      -4.72509797
C        3.92680821       4.50961075      -5.23293538
C        5.18941919       4.81322249      -4.70689534
C        6.20141917       5.28027271      -5.55427644
C        5.94959999       5.43988356      -6.91866670
C        4.69587816       5.14254340      -7.44786827
C        3.68528700       4.68459791      -6.60332369
C        8.53385405      -1.10366621      -2.14940349
O        8.49561555      -1.14146197      -3.57422143
C        8.35765457      -2.38190412      -4.15032648
C        7.71435135      -3.45406805      -3.52235994
C        7.58308239      -4.68110338      -4.17390574
C        8.09539446      -4.84740441      -5.45688739
Cl       7.93270788      -6.36688210      -6.24532246
C        8.72804443      -3.79053198      -6.10452033
C        8.84792355      -2.55675571      -5.45618679
Cl       9.61967717      -1.26642736      -6.30736242
H        6.52465764       0.07629086      -3.11320744
H        4.87717107       1.49305262      -3.09987002
H        2.59647434      -0.42595045      -0.74497582
H       -0.65977228       2.36839726      -1.18062066
H        0.73454167       3.81169405      -2.57980130
H        5.39778191       4.70613574      -3.64428085
H        7.17992630       5.52229715      -5.14459225
H        4.49278845       5.26505469      -8.50825683
H        2.70333217       4.45428915      -7.01879258
H        9.11158382      -1.94304702      -1.74388965
H        9.06649902      -0.18935399      -1.86680825
H        7.28430552      -3.37398255      -2.52951857
H        7.07263735      -5.49979555      -3.66977821
H        9.12236808      -3.92545007      -7.10819150
C        6.99099265       5.92155990      -7.78877545
C        7.86315900       6.32496383      -8.51749153
Br       9.27337822       6.97723387      -9.69576379
O       -0.22123809      -6.98621138       1.43696378
C       -1.31894961      -7.20493703       0.92317849
N       -2.07460673      -6.29640037       0.20662710
N       -1.63625471      -5.01920799       0.00804925
C       -2.25808133      -4.39686954      -0.94134866
C       -1.95848862      -2.99475588      -1.32129274
C       -1.12750640      -2.20575163      -0.51556861
C       -0.88135842      -0.88135842      -0.88135842
C       -1.43325862      -0.34909676      -2.04694524
C       -2.24076525      -1.14337683      -2.86211329
C       -2.52538446      -2.45807415      -2.48758203
O       -3.33488050      -3.30827132      -3.27814287
C       -4.42775254      -2.81815324      -3.97677727
O       -4.77322951      -1.65227129      -4.08607107
C       -5.24390286      -3.94125658      -4.48419490
C       -4.69967903      -5.18718504      -4.82267296
C       -5.53640392      -6.20645896      -5.29310545
C       -6.90827320      -5.97849290      -5.42138414
C       -7.45560926      -4.74139143      -5.08928913
C       -6.62187172      -3.72340596      -4.62793091
C       -1.96226506      -8.59418116       0.97685489
O       -3.38653640      -8.58471117       1.04287256
C       -3.94068558      -8.48206164       2.29667029
C       -3.30427791      -7.84733262       3.36896729
C       -3.93397381      -7.75259782       4.61068688
C       -5.20331522      -8.29315846       4.79159624
Cl      -5.96470238      -8.17535154       6.32890569
C       -5.85928656      -8.91792006       3.73517383
C       -5.23315399      -9.00120249       2.48700185
Cl      -6.09449939      -9.76451519       1.19840234
H       -2.98766849      -6.58194366      -0.14454379
H       -3.03398192      -4.90749132      -1.52862046
H       -0.68623009      -2.61835827       0.38908865
H       -1.23948360       0.68198546      -2.33174750
H       -2.63962584      -0.71147935      -3.77493182
H       -3.63134231      -5.37663363      -4.74022255
H       -5.11276064      -7.17186802      -5.56218705
H       -8.52192255      -4.55687254      -5.18730488
H       -7.05159444      -2.75443831      -4.37038115
H       -1.52925108      -9.17990685       1.79673148
H       -1.68748632      -9.10342886       0.04696190
H       -2.32168398      -7.39637688       3.27821932
H       -3.42378093      -7.24822301       5.42938392
H       -6.85231672      -9.33443789       3.88164511
C       -7.76743783      -7.02731325      -5.90657691
C       -8.48698821      -7.90570029      -6.31292586
Br      -9.65044031      -9.32597784      -6.96995774
O        2.72258642       6.17557037       2.31750174
C        1.64761135       6.74815060       2.50016890
N        0.39438182       6.17801286       2.38074896
N        0.24905726       4.86724195       2.02922876
C       -0.92563648       4.38696233       2.28370074
C       -1.31329734       2.98971443       1.97152547
C       -0.48206840       2.18462829       1.18212995
C       -0.88135842       0.88135842       0.88135842
C       -2.08142264       0.37083626       1.37704172
C       -2.89692523       1.16532727       2.18400287
C       -2.52714782       2.48302210       2.46087071
O       -3.31439100       3.33112734       3.27577634
C       -4.69956065       3.27389960       3.24922280
O       -5.39518843       2.47772673       2.63865671
C       -5.26377224       4.43281401       3.97276810
C       -4.61046369       5.05337787       5.04569546
C       -5.20474794       6.15074571       5.68047467
C       -6.44358558       6.62303538       5.24152928
C       -7.09988773       6.00916131       4.17724078
C       -6.51220469       4.91152254       3.54948136
C        1.58953381       8.20786045       2.96126469
O        0.47499257       8.94278421       2.46058338
C        0.63315610       9.53097970       1.22825333
C        1.49105306       9.03143924       0.24225706
C        1.58481756       9.66054006      -0.99983776
C        0.82408113      10.79484932      -1.26589075
Cl       0.95464215      11.56405849      -2.79826809
C       -0.04459580      11.30122924      -0.30379225
C       -0.14805656      10.66272145       0.93657662
Cl      -1.25647015      11.31241908       2.09172301
H       -0.42893298       6.76126341       2.52395955
H       -1.68838957       5.00823269       2.77347145
H        0.45958326       2.57390836       0.80117461
H       -2.39057313      -0.64489335       1.14356587
H       -3.81461089       0.73649873       2.57492739
H       -3.65086248       4.68974471       5.40759131
H       -4.70041567       6.62848367       6.51791636
H       -8.06422017       6.37089277       3.83098703
H       -7.02837687       4.43042023       2.71761679
H        2.53538716       8.71415231       2.73366129
H        1.49737592       8.18887973       4.05244946
H        2.09481869       8.14256246       0.39209777
H        2.25321070       9.25093838      -1.75510766
H       -0.63921044      12.18503397      -0.51913491
C       -7.05420713       7.75094402       5.89617685
C       -7.56560267       8.69556751       6.44444418
Br      -8.39248601      10.22294379       7.33094609
O        3.10649563       3.01094314       5.67493321
C        3.24948066       1.97633094       6.32755843
N        2.97110444       0.69568878       5.88896434
N        2.48784825       0.47261460       4.63217979
C        2.59543722      -0.75731268       4.24354964
C        2.12250434      -1.23181810       2.92021479
C        1.33521055      -0.40226086       2.11135523
C        0.88135842      -0.88135842       0.88135842
C        1.22324760      -2.16151145       0.44454157
C        2.02831877      -2.97800811       1.23992850
C        2.45728858      -2.52473001       2.48902204
O        3.27764533      -3.30936607       3.33428329
C        3.12795601      -4.68584843       3.40887860
O        2.38880484      -5.38683372       2.73593331
C        3.90565423      -5.21424263       4.54945747
C        5.08349263      -4.61329314       5.01275125
C        5.76483682      -5.16848965       6.10264186
C        5.26787695      -6.31626088       6.72401242
C        4.09897673      -6.92041522       6.26689787
C        3.42400846      -6.37244443       5.17675570
C        3.83798735       2.00010780       7.74171179
O        3.31485403       1.00376806       8.61728903
C        2.16068582       1.32563639       9.29102750
C        1.20911505       2.22600412       8.79953231
C        0.04358605       2.48838411       9.52068281
C       -0.17942932       1.85517593      10.73948269
Cl      -1.61672357       2.19305027      11.62092208
C        0.74815400       0.94692458      11.24080336
C        1.91026800       0.67428534      10.51137197
Cl       3.02228637      -0.47756587      11.16076000
H        3.09738436      -0.08469107       6.53208051
H        3.07420644      -1.50667699       4.88921027
H        1.07381438       0.60052547       2.44221080
H        0.87063197      -2.53296520      -0.51435152
H        2.29796014      -3.96131892       0.86675796
H        5.49035634      -3.72608441       4.53175774
H        6.68307013      -4.70554437       6.45820120
H        3.70704956      -7.81393722       6.74511319
H        2.50998532      -6.84794128       4.81848729
H        3.73997943       3.00273849       8.17518551
H        4.91081652       1.80536827       7.63850503
H        1.32634987       2.73523994       7.84873161
H       -0.68686815       3.18692315       9.11641132
H        0.56624849       0.45243937      12.19130039
C        5.97038505      -6.88691366       7.84402928
C        6.55873558      -7.36483537       8.78204340
Br       7.51004864      -8.13759435      10.29873290
