129
Properties=species:S:1:pos:R:3 pbc="F F F"
C        0.00000000       0.00000000       0.00000000
O        3.27537968       1.46407474      -8.33431182
C        2.73085836       1.01565996      -7.32555184
N        2.84557527       1.69642716      -6.13255155
N        2.25669894       1.26560618      -4.98142641
C        2.47726135       2.00723564      -3.94110760
C        1.91430551       1.67876506      -2.66392068
O        2.24518980       2.47340292      -1.60062947
C        1.60903723       1.96823815      -0.50254696
C        1.83571921       2.67868662       0.77159477
C        0.87048669       0.87048669      -0.87048669
C        1.06114205       0.67312025      -2.25131920
C        1.93127954      -0.29088422      -7.28564293
O        1.78963921      -0.95871234      -8.53569203
C        2.71917392      -1.92599442      -8.80336259
C        4.07848903      -1.82241445      -8.50297375
C        4.95444236      -2.85406603      -8.85178844
C        4.47526798      -3.98782061      -9.50709237
C        3.12086925      -4.07881690      -9.82130199
Br       2.46919712      -5.60975833     -10.71911746
C        2.24387372      -3.04991562      -9.48119058
H        3.38164654       2.55852451      -6.15912284
H        3.10626909       2.91442408      -3.99031877
H        1.87940940       1.97630153       1.60957612
H        1.02617605       3.39055990       0.95897886
H        2.78035497       3.23164645       0.75035900
H        0.63807430      -0.09603639      -2.88246606
H        0.91411969      -0.03132153      -6.96862498
H        2.34494096      -0.96030575      -6.52033390
H        4.48845141      -0.93634988      -8.02982113
H        6.01389546      -2.76453928      -8.62463227
H        5.16388521      -4.78360168      -9.77794762
H        1.18941079      -3.11522513      -9.73437816
O       -5.60620909      -0.34109563      -7.12646151
C       -4.86604970      -0.00324591      -6.20277455
N       -4.35278382      -0.96381473      -5.35795543
N       -3.51612040      -0.66243680      -4.32517434
C       -3.13762456      -1.67649492      -3.61148512
C       -2.25112664      -1.50884511      -2.49701950
O       -1.94888603      -2.61675707      -1.75357909
C       -1.10886254      -2.21781810      -0.75314170
C       -0.65801397      -3.26716180       0.18236471
C       -0.87048669      -0.87048669      -0.87048669
C       -1.59957682      -0.40484110      -1.98116359
C       -4.47765290       1.44674764      -5.89513299
O       -4.98447857       2.42051160      -6.80265193
C       -6.16460233       3.01219716      -6.44413692
C       -7.24087522       2.34193679      -5.86010990
C       -8.41974052       3.03191152      -5.56433577
C       -8.52792908       4.39087725      -5.85748790
C       -7.45784893       5.05169390      -6.45719930
Br      -7.60456159       6.89181459      -6.86580925
C       -6.28196779       4.36682364      -6.76000454
H       -4.61672298      -1.92362070      -5.55895022
H       -3.48112138      -2.70482126      -3.82506930
H       -0.57191377      -2.87427636       1.20005532
H        0.31897502      -3.65400707      -0.12272504
H       -1.36525532      -4.10250467       0.20611758
H       -1.65405771       0.60169070      -2.37213696
H       -3.38541357       1.50629222      -5.97230179
H       -4.74000089       1.69315087      -4.85811908
H       -7.20232235       1.27697629      -5.65657660
H       -9.25886048       2.50346955      -5.11859751
H       -9.44947434       4.91881236      -5.62756918
H       -5.45056528       4.87858702      -7.23658556
O       -0.57109655       4.86427779       7.63839189
C       -0.23400253       4.12168070       6.71638693
N       -1.10460984       3.89861043       5.67133371
N       -0.79115692       3.10089822       4.61167640
C       -1.72618073       2.97734930       3.72207457
C       -1.53268165       2.17423534       2.55007427
O       -2.58825267       2.04083480       1.69013472
C       -2.17903978       1.23395270       0.66682986
C       -3.17686018       0.94930670      -0.38335582
C       -0.87048669       0.87048669       0.87048669
C       -0.44706794       1.46336249       2.07515107
C        1.10818297       3.38551938       6.64870185
O        2.00997295       3.66017315       7.71641870
C        1.96638122       2.79103513       8.77188817
C        0.79470986       2.24986889       9.30388930
C        0.85495966       1.39738308      10.40974136
C        2.08489284       1.08934164      10.99009093
C        3.25010063       1.64631394      10.46714102
Br       4.91859119       1.23938638      11.25776106
C        3.19506765       2.50214632       9.36807002
H       -1.99647242       4.38171970       5.72110178
H       -2.70613539       3.47688231       3.82799425
H       -3.07496980      -0.07547815      -0.75335683
H       -3.04811495       1.63549681      -1.22585466
H       -4.19544935       1.06543669       0.00075638
H        0.52131449       1.39478212       2.55103634
H        1.61217752       3.72697576       5.73662489
H        0.93882815       2.30672534       6.53707192
H       -0.18023628       2.50168211       8.90000427
H       -0.06107908       0.98620300      10.82670636
H        2.12230795       0.42857962      11.85195949
H        4.10181581       2.94487593       8.96550370
O        0.39629072      -5.38581035       7.29166517
C        0.06979123      -4.60032853       6.40195040
N        0.99318583      -4.23550250       5.44586566
N        0.69580056      -3.38289603       4.42503494
C        1.67980139      -3.12442152       3.62138168
C        1.50933177      -2.24918335       2.49847613
O        2.61032541      -1.97456820       1.73432858
C        2.21440135      -1.12250591       0.74291508
C        3.25991776      -0.68694006      -0.20404675
C        0.87048669      -0.87048669       0.87048669
C        0.40890342      -1.58335562       1.99332246
C       -1.31689846      -3.95915398       6.28378273
O       -2.26894470      -4.37925894       7.25630467
C       -2.36825378      -3.59328113       8.37151474
C       -1.28295492      -3.01226972       9.02973353
C       -1.48785146      -2.25417613      10.18584010
C       -2.77628235      -2.08071302      10.69010906
C       -3.85458198      -2.67767827      10.04025805
Br      -5.60182243      -2.45351215      10.72686654
C       -3.65510063      -3.43999672       8.89025260
H        1.91381000      -4.65589794       5.52958595
H        2.68527429      -3.55917413       3.76656354
H        3.10600694       0.35340631      -0.50646581
H        3.24517663      -1.31352003      -1.10093957
H        4.25430038      -0.75912204       0.24821999
H       -0.59346970      -1.62123053       2.39674313
H       -1.72642425      -4.26441966       5.31342772
H       -1.22374238      -2.86561249       6.26309899
H       -0.26507050      -3.16169565       8.68529750
H       -0.63849521      -1.81185784      10.70062581
H       -2.92620296      -1.49281396      11.59162016
H       -4.49381436      -3.91413504       8.38824315
