146
Properties=species:S:1:pos:R:3 pbc="F F F"
C        1.79120435       1.79120435      -1.79120435
C        2.87154879       1.23390848      -2.46885181
C        3.68005156       2.04069685      -3.28058532
C        3.41898033       3.41393345      -3.42648041
C        2.32121915       3.94887138      -2.72589093
C        1.51153650       3.14760859      -1.91469216
C        4.22698881       4.32071286      -4.27428879
S        5.55802064       3.73076416      -5.23443953
C        5.79805103       5.34191740      -5.81337883
N        6.67875662       5.88925165      -6.69377637
C        6.44448278       7.18934083      -6.78136449
S        5.12412444       7.78470819      -5.81204603
C        4.88549189       6.17027029      -5.23732473
N        3.99423242       5.62126876      -4.36961538
C        7.19423065       8.09578088      -7.67401411
C        7.82741559       7.55901346      -8.80897294
C        8.54554478       8.37314083      -9.69061256
C        8.64678683       9.73783483      -9.43977793
C        8.04106424      10.29232584      -8.31545731
C        7.32068994       9.47481507      -7.43665226
H        3.09605022       0.17418717      -2.37591024
H        4.51333497       1.56372255      -3.79090899
H        2.08621031       5.00971636      -2.81190943
H        0.67085553       3.59390174      -1.39014153
H        7.75889041       6.49113298      -9.01525795
H        9.01865187       7.93038351     -10.56346159
H        8.12426066      11.35664436      -8.10954771
H        6.87307061       9.93838878      -6.56064223
C        9.38436848      10.58065001     -10.34489443
C       10.00209312      11.28650772     -11.10292950
Br      11.00090160      12.42781994     -12.32860809
C       -1.79120435      -1.79120435      -1.79120435
C       -2.36524548      -1.26457422      -2.94448938
C       -3.17225683      -2.07276027      -3.75631663
C       -3.41511910      -3.41729621      -3.42697888
C       -2.82326815      -3.92004935      -2.25266395
C       -2.01713272      -3.11728790      -1.43941663
C       -4.24958103      -4.32802594      -4.24438349
S       -4.95999543      -3.81199502      -5.75123388
C       -5.62347056      -5.39812706      -5.93174962
N       -6.37961161      -5.98223916      -6.89993388
C       -6.63430430      -7.23286818      -6.54801561
S       -5.93782140      -7.74748079      -5.03557647
C       -5.27325100      -6.15963672      -4.86019919
N       -4.50376078      -5.58156397      -3.89979182
C       -7.40502277      -8.17539781      -7.38360506
C       -7.46868835      -7.95571526      -8.77099838
C       -8.17967021      -8.82035447      -9.60927349
C       -8.84598611      -9.91358727      -9.06482621
C       -8.81057020     -10.14578071      -7.69249648
C       -8.09558052      -9.27978334      -6.85679341
H       -2.19314320      -0.22828315      -3.22472128
H       -3.60065436      -1.62003474      -4.64727742
H       -2.98826833      -4.95751708      -1.96205070
H       -1.57442972      -3.53935552      -0.54111355
H       -6.95417223      -7.10117985      -9.20992926
H       -8.20511761      -8.62841384     -10.67896551
H       -9.33670334     -10.99342684      -7.26032256
H       -8.10141542      -9.48234571      -5.78834049
C       -9.57881414     -10.80739695      -9.92370183
C      -10.19255762     -11.55596255     -10.64301016
Br     -11.18492891     -12.76632983     -11.80607089
C       -1.79120435       1.79120435       1.79120435
C       -1.78305172       3.17222538       1.61903198
C       -2.59347456       3.98271816       2.42514101
C       -3.42294835       3.42391632       3.41252951
C       -3.40678920       2.02440876       3.56478349
C       -2.59969851       1.21153511       2.76260364
C       -4.30960196       4.22090518       4.29148332
S       -4.44882691       5.95118703       4.12321039
C       -5.60167210       5.94027650       5.41139865
N       -6.32920897       6.91964982       6.01292586
C       -7.06834442       6.37823269       6.96861099
S       -6.92076142       4.65108106       7.14903618
C       -5.76952879       4.66607084       5.85748728
N       -5.05498434       3.68417039       5.24596183
C       -8.00967454       7.14708419       7.80726691
C       -8.52656887       8.35718859       7.31164453
C       -9.42570538       9.12186349       8.06172931
C       -9.81152778       8.68713649       9.32573532
C       -9.30353502       7.49966405       9.84564832
C       -8.40588660       6.73541137       9.09085929
H       -1.15257995       3.63175709       0.86181059
H       -2.55522162       5.05621803       2.25652687
H       -4.03509116       1.55256633       4.32017862
H       -2.61415310       0.13440627       2.90633943
H       -8.22987192       8.71091542       6.32449399
H       -9.81359329      10.04978011       7.64912356
H       -9.59456419       7.15945546      10.83643309
H       -8.01734433       5.82122647       9.53353082
C      -10.73772412       9.47037247      10.10181632
C      -11.51341356      10.12633260      10.75178417
Br     -12.76763778      11.18696466      11.80272720
C        1.79120435      -1.79120435       1.79120435
C        1.74399087      -3.17544217       1.65487604
C        2.55430098      -3.98604310       2.46098965
C        3.42265603      -3.42417701       3.41256114
C        3.44552466      -2.02133870       3.52911809
C        2.63870534      -1.20834562       2.72678630
C        4.31136040      -4.22141687       4.28921319
S        4.40277001      -5.95838368       4.16207064
C        5.58828470      -5.94483005       5.42023250
N        6.30626362      -6.92720116       6.02831987
C        7.08308704      -6.38117962       6.95092143
S        6.98355890      -4.64682121       7.09049855
C        5.79946697      -4.66457723       5.82904272
N        5.09427824      -3.68026563       5.21057270
C        8.02610161      -7.15271761       7.78520642
C        8.49956164      -8.38776893       7.30807143
C        9.39823598      -9.15626893       8.05479326
C        9.82723054      -8.70004639       9.29712265
C        9.36272362      -7.48723221       9.79889157
C        8.46540479      -6.71931041       9.04744207
H        1.08292042      -3.63744908       0.92577812
H        2.48481096      -5.06209470       2.32106085
H        4.10468847      -1.54701901       4.25612863
H        2.68386337      -0.12867911       2.84235632
H        8.16878895      -8.75839277       6.33809961
H        9.75198602     -10.10391371       7.65659723
H        9.68758663      -7.12988091      10.77298519
H        8.11142990      -5.78461758       9.47605414
C       10.75315051      -9.48713965      10.06962275
C       11.52860849     -10.14633025      10.71659159
Br      12.78245846     -11.21218571      11.76268548
C       -0.00445707       0.01189536      -1.78238275
H       -0.66409135       0.67374010      -2.43557963
H        0.65740317      -0.63156657      -2.45157240
C       -0.90989263      -0.90692880      -0.91072765
C        0.90977584       0.90977584      -0.90977584
C       -0.00465871       1.77757030       0.00794375
H       -0.66225468       2.44313916      -0.64384735
H        0.64322798       2.43503045       0.67728295
C       -1.78241447       0.00034974      -0.00472694
H       -2.45427497      -0.65498947       0.64260836
H       -2.43311707       0.67328779      -0.65473579
C       -0.91132561       0.90220522       0.91563759
C       -0.01476271      -0.02253852       1.78660255
H       -0.67934791      -0.69751639       2.42135241
H        0.63392994       0.61504881       2.47327442
C        0.01484550      -1.77751727      -0.01636693
H        0.67870853      -2.42144646      -0.68295456
H       -0.62264859      -2.45592969       0.64226336
C        1.78714474       0.01002794       0.00389507
H        2.44202412       0.67113390       0.66197326
H        2.45385902      -0.65136977      -0.64189061
C        0.91606151      -0.90478549       0.90901405
