165
Properties=species:S:1:pos:R:3 pbc="F F F"
C        0.00000000       0.00000000       0.00000000
O        8.48076574       5.47978793       1.61883666
C        8.23515556       6.21117496       0.65809936
C        6.87340284       6.85288273       0.47471958
C        6.01738073       6.10302060      -0.54175903
C        5.51735647       4.75670745      -0.01123489
C        4.64026703       4.05719901      -1.03948917
O        4.77045313       4.26733348      -2.24058093
N        3.74603300       3.17505759      -0.45554840
C        2.73154786       2.43659705      -1.10400273
C        2.48213636       2.49641346      -2.47804478
C        1.44163315       1.75665214      -3.04920162
C        0.63761744       0.94810823      -2.25095081
C        0.88245081       0.88245081      -0.88245081
C        1.92155419       1.61802538      -0.30689960
N        9.18231233       6.44339739      -0.31013821
N        8.93355842       7.23885397      -1.38023249
C        9.89018061       7.34659577      -2.24514593
C        9.72490728       8.17793274      -3.45425066
C       10.78921268       8.29371560      -4.35325458
C       10.64313045       9.07927914      -5.49874179
C        9.43949320       9.74396176      -5.74348027
C        8.38256500       9.62075405      -4.84187451
Br       6.75435318      10.52163878      -5.17540002
C        8.51672762       8.84017941      -3.69677610
H        7.00909466       7.89252582       0.15453518
H        6.37386569       6.89889239       1.44933963
H        6.57202648       5.94922440      -1.47456335
H        5.14976223       6.72491053      -0.79646352
H        4.94807080       4.91553960       0.91180263
H        6.35737161       4.09054707       0.21430560
H        3.80998870       3.05986891       0.54844135
H        3.07760380       3.11629450      -3.14134499
H        1.26261662       1.81985432      -4.11990480
H       -0.17116680       0.38076427      -2.70303394
H        2.08913791       1.55196099       0.76432926
H       10.08280897       5.99219303      -0.19158855
H       10.85654409       6.82626391      -2.11764251
H       11.73110433       7.78142255      -4.17558032
H       11.46586953       9.17474795      -6.20362999
H        9.33380353      10.35328341      -6.63777046
H        7.68824631       8.74407055      -2.99892539
O        1.83251893      -7.70335157      -6.47088437
C        0.78116224      -7.49175923      -7.07763417
C        0.40256374      -6.10203382      -7.55209591
C       -0.60614963      -5.43297617      -6.62303454
C        0.01313002      -5.01024711      -5.28818172
C       -1.01454326      -4.31678447      -4.40562747
O       -2.21321822      -4.55206810      -4.51308122
N       -0.42873697      -3.45405557      -3.49384645
C       -1.08942213      -2.58832180      -2.59440370
C       -2.47958869      -2.48034762      -2.49665828
C       -3.06609624      -1.58084782      -1.60054285
C       -2.26731058      -0.77786957      -0.79149633
C       -0.88245081      -0.88245081      -0.88245081
C       -0.29128588      -1.78050074      -1.77469255
N       -0.11162199      -8.50914419      -7.31508175
N       -1.27827144      -8.29985397      -7.97451946
C       -2.05477567      -9.32757622      -8.09957043
C       -3.35486450      -9.21213864      -8.79008754
C       -4.15571708     -10.34927782      -8.93118796
C       -5.38618898     -10.25049640      -9.58446601
C       -5.81290244      -9.02155926     -10.09247354
C       -5.00799115      -7.89215516      -9.94504725
Br      -5.58784031      -6.22981217     -10.63373951
C       -3.77956305      -7.97870386      -9.29541623
H       -0.01088718      -6.17115149      -8.56504662
H        1.31496534      -5.50060236      -7.63778144
H       -1.46057256      -6.09481161      -6.44043006
H       -1.00626029      -4.54177903      -7.12309696
H        0.85596229      -4.33446863      -5.47330143
H        0.38640485      -5.88140062      -4.73861731
H        0.58330536      -3.42266150      -3.48206012
H       -3.14477218      -3.08063143      -3.10983968
H       -4.14965160      -1.51031102      -1.54241312
H       -2.73205123      -0.07881229      -0.10176790
H        0.79200350      -1.83993731      -1.82883582
H        0.13887539      -9.43097917      -6.97448677
H       -1.78187435     -10.32024549      -7.69833068
H       -3.83632627     -11.31167803      -8.54010290
H       -6.01573068     -11.13001590      -9.69850089
H       -6.77232755      -8.95309114     -10.59943871
H       -3.15746654      -7.09430172      -9.17947399
O       -5.62639807      -1.66070610       8.37602504
C       -6.34014211      -0.68589646       8.13398551
C       -6.95909266      -0.47346263       6.76593597
C       -6.18214396       0.54417586       5.93584053
C       -4.83645106       0.00124699       5.44760076
C       -4.10936622       1.03170162       4.59588736
O       -4.30400547       2.23373882       4.74062324
N       -3.22273744       0.44787241       3.70602915
C       -2.46018319       1.10002220       2.71194224
C       -2.49646957       2.47825503       2.48187000
C       -1.73335048       3.05348069       1.46065575
C       -0.92472420       2.25516225       0.65679003
C       -0.88245081       0.88245081       0.88245081
C       -1.64142703       0.30279054       1.90226160
N       -6.57221142       0.27185181       9.09178470
N       -7.34838473       1.35698029       8.84727985
C       -7.45763202       2.20946397       9.81482633
C       -8.26889321       3.43289305       9.65530442
C       -8.38726635       4.31802150      10.73089501
C       -9.15396476       5.47689789      10.59028873
C       -9.79731728       5.74872904       9.38088893
C       -9.67166666       4.86078376       8.31274313
Br     -10.54366136       5.23098369       6.67674694
C       -8.90977567       3.70254155       8.44136592
H       -7.99587754      -0.14006051       6.89126826
H       -7.01185323      -1.43998127       6.25154650
H       -6.02303227       1.46651040       6.50627156
H       -6.78749668       0.82048671       5.06315289
H       -5.00024177      -0.91103736       4.86260336
H       -4.18601094      -0.24615632       6.29375845
H       -3.12302221      -0.55851816       3.75691221
H       -3.11536502       3.14189889       3.07797938
H       -1.77843856       4.12747116       1.29646602
H       -0.33910520       2.71051889      -0.13699267
H       -1.59331726      -0.77160223       2.05505460
H       -6.13602235       0.13369491       9.99687329
H       -6.95342548       2.06038942      10.78663562
H       -7.89146317       4.11925835      11.67738568
H       -9.25129110       6.17114533      11.42181103
H      -10.39203419       6.65329317       9.27953003
H       -8.81162347       3.01540371       7.60421507
O        2.83855858      -9.81910675      -0.31594832
C        3.06074986      -9.83151185       0.89596945
C        2.04753805      -9.30832574       1.89570220
C        2.38764151      -7.90000564       2.37451320
C        2.14958667      -6.83841428       1.29729786
C        2.46642165      -5.44633204       1.82420151
O        3.27427648      -5.27364642       2.73044463
N        1.77223097      -4.45686124       1.14754679
C        1.75943951      -3.07467130       1.43803683
C        2.47468753      -2.49314514       2.48876194
C        2.39391550      -1.11872455       2.73484687
C        1.59520028      -0.30972853       1.93174768
C        0.88245081      -0.88245081       0.88245081
C        0.96078231      -2.25458674       0.63111012
N        4.26002523     -10.28865188       1.38717082
N        4.53066305     -10.30582961       2.71615221
C        5.70986252     -10.71953200       3.05252780
C        6.11636466     -10.76952732       4.47119871
C        7.38805303     -11.24812223       4.80000761
C        7.78093445     -11.30101650       6.13920044
C        6.90723930     -10.87689280       7.14280315
C        5.64129794     -10.39900075       6.80489486
Br       4.46044920      -9.82562701       8.16531579
C        5.23895708     -10.34150801       5.47321805
H        2.00332199      -9.99322134       2.75054196
H        1.05374377      -9.33566910       1.43400559
H        3.42708467      -7.85002342       2.71870614
H        1.76176733      -7.66464344       3.24472551
H        1.10499832      -6.87891548       0.96789396
H        2.79074653      -7.01599535       0.42687120
H        1.19352220      -4.75568784       0.37220621
H        3.10663122      -3.08250029       3.14611178
H        2.95609276      -0.68687166       3.55941132
H        1.53520082       0.75613295       2.13356355
H        0.39148945      -2.67716205      -0.19188188
H        4.94077565     -10.61557413       0.71024077
H        6.45225918     -11.04605655       2.30213479
H        8.07824189     -11.58070259       4.02916272
H        8.76853071     -11.67170443       6.40401232
H        7.22093516     -10.92100007       8.18292216
H        4.25232322      -9.96426586       5.21465317
