194
Properties=species:S:1:pos:R:3 pbc="F F F"
O        9.39066976       6.38969195       0.70893264
C        9.14505958       7.12107899      -0.25180466
C        7.78330686       7.76278676      -0.43518445
C        6.92728475       7.01292462      -1.45166305
C        6.42726050       5.66661147      -0.92113891
C        5.55017105       4.96710303      -1.94939319
O        5.68035715       5.17723750      -3.15048496
N        4.65593703       4.08496162      -1.36545242
C        3.64145188       3.34650107      -2.01390675
C        3.39204038       3.40631748      -3.38794881
C        2.35153718       2.66655617      -3.95910565
C        1.54752146       1.85801225      -3.16085484
C        1.79235483       1.79235483      -1.79235483
C        2.83145821       2.52792941      -1.21680362
N       10.09221635       7.35330142      -1.22004223
N        9.84346244       8.14875799      -2.29013652
C       10.80008464       8.25649980      -3.15504995
C       10.63481130       9.08783676      -4.36415469
C       11.69911670       9.20361963      -5.26315860
C       11.55303447       9.98918316      -6.40864582
C       10.34939723      10.65386579      -6.65338430
C        9.29246902      10.53065807      -5.75177853
C        9.42663165       9.75008344      -4.60668013
H        7.91899868       8.80242984      -0.75536884
H        7.28376972       7.80879642       0.53943560
H        7.48193050       6.85912843      -2.38446737
H        6.05966626       7.63481456      -1.70636754
H        5.85797483       5.82544362       0.00189861
H        7.26727563       5.00045110      -0.69559842
H        4.71989273       3.96977293      -0.36146267
H        3.98750782       4.02619852      -4.05124902
H        2.17252065       2.72975834      -5.02980882
H        0.73873723       1.29066830      -3.61293797
H        2.99904193       2.46186501      -0.14557476
H       10.99271299       6.90209705      -1.10149258
H       11.76644811       7.73616793      -3.02754654
H       12.64100835       8.69132657      -5.08548434
H       12.37577355      10.08465197      -7.11353401
H       10.24370755      11.26318743      -7.54767449
H        8.59815034       9.65397457      -3.90882941
C        8.05224022      11.21687296      -6.00582899
C        7.01354860      11.79157794      -6.21859624
Br       5.33407209      12.72082727      -6.56262290
O       -2.34549368     -11.00189920      -1.72403620
C       -2.74640896     -10.88795066      -2.88358361
C       -1.97566591     -10.08892563      -3.91668652
C       -2.56777134      -8.69825672      -4.12584436
C       -2.31039268      -7.76439536      -2.94022284
C       -2.88490312      -6.37973022      -3.20203393
O       -3.83722751      -6.21422404      -3.95662806
N       -2.23237275      -5.39401798      -2.47996034
C       -2.44665549      -3.99995500      -2.55524922
C       -3.38430236      -3.40081132      -3.40119299
C       -3.52420113      -2.00984700      -3.44315085
C       -2.72617427      -1.20164124      -2.63857305
C       -1.79235483      -1.79235483      -1.79235483
C       -1.64956537      -3.18140297      -1.74522290
N       -3.93561659     -11.45383960      -3.27610381
N       -4.40121507     -11.33650285      -4.54463902
C       -5.55286904     -11.87722507      -4.78154029
C       -6.16089056     -11.80092175      -6.12499044
C       -7.39340891     -12.42031398      -6.35217204
C       -7.97557922     -12.35526466      -7.62001957
C       -7.32899486     -11.67404294      -8.65360951
C       -6.10062401     -11.05741742      -8.41686419
C       -5.51094285     -11.11552710      -7.15692526
H       -1.97237983     -10.64012580      -4.86429173
H       -0.92825099     -10.02501447      -3.59986507
H       -3.64495464      -8.76247390      -4.31809776
H       -2.11863449      -8.25734082      -5.02487304
H       -1.23167849      -7.68815453      -2.76168682
H       -2.78209665      -8.15107948      -2.03014903
H       -1.50780226      -5.70075453      -1.84257154
H       -4.02574565      -3.98768825      -4.05152146
H       -4.25765428      -1.56379903      -4.11063450
H       -2.83892553      -0.12190357      -2.68151439
H       -0.91060781      -3.61707079      -1.07880310
H       -4.45590652     -11.96728791      -2.57310820
H       -6.12237962     -12.40938969      -3.99839327
H       -7.90786521     -12.95314340      -5.55681066
H       -8.93432991     -12.83406779      -7.80556184
H       -7.78913148     -11.62778935      -9.63764865
H       -4.55495334     -10.62962667      -6.97637431
C       -5.43544613     -10.35559046      -9.48390558
C       -4.87835966      -9.76781038     -10.37755273
Br      -3.97759795      -8.81741971     -11.82250460
O        0.10997986       4.91996083      10.26144811
C       -1.11152373       5.01147051      10.39494899
C       -2.03295506       3.84212176      10.10620124
C       -2.69650269       3.95829391       8.73707582
C       -1.71799462       3.71125927       7.58575699
C       -2.42449763       3.80127526       6.24089438
O       -3.43407734       4.48134866       6.09265361
N       -1.77911804       3.06989457       5.25733846
C       -2.21178098       2.86095043       3.92912830
C       -3.39651486       3.38529779       3.40449402
C       -3.77638656       3.11491859       2.08589383
C       -2.97444085       2.31544136       1.27650634
C       -1.79235483       1.79235483       1.79235483
C       -1.40724714       2.06061249       3.10833161
N       -1.69105344       6.19751777      10.77698879
N       -3.03339291       6.32492966      10.92403438
C       -3.46233121       7.50248240      11.24682079
C       -4.90595064       7.75835905      11.42249306
C       -5.33155987       9.03577421      11.79856085
C       -6.69479023       9.28703207      11.96904115
C       -7.62616100       8.26683256      11.76365375
C       -7.19218244       6.99614496      11.38657822
C       -5.83573005       6.73419807      11.21346709
H       -2.79838691       3.78920119      10.88920926
H       -1.45543988       2.91370172      10.18398893
H       -3.16590868       4.94160063       8.61801700
H       -3.50571207       3.21952050       8.67561579
H       -1.26358254       2.72016208       7.69777523
H       -0.91656637       4.45823228       7.58852650
H       -0.91270001       2.61712760       5.52130071
H       -4.05807980       4.00943691       3.99743865
H       -4.70360658       3.53020473       1.69827650
H       -3.28018195       2.10719655       0.25496499
H       -0.48171792       1.63702527       3.48773851
H       -1.06942341       6.98078949      10.94608973
H       -2.77560404       8.35439318      11.40016537
H       -4.61775447       9.83905839      11.96100642
H       -7.03476084      10.27794832      12.26125038
H       -8.68564980       8.47078411      11.89813556
H       -5.50274004       5.74278136      10.91543293
C       -8.15404162       5.94551424      11.17538631
C       -8.95959868       5.06561102      10.99851307
Br     -10.26211632       3.64288193      10.71252402
O        5.50969026       0.38852688       9.95026570
C        6.34162776      -0.48325028       9.69306519
C        7.10657794      -0.49105381       8.38364631
C        6.52319129      -1.48502418       7.38365694
C        5.18039463      -1.02407761       6.81053863
C        4.64976865      -2.02372858       5.79317005
O        4.95497061      -3.21037139       5.84273761
N        3.79525454      -1.43650862       4.87458791
C        3.20329809      -2.05007984       3.74848178
C        3.40584672      -3.38680898       3.39365097
C        2.80782677      -3.92143531       2.24793691
C        1.99983119      -3.12351307       1.44304430
C        1.79235483      -1.79235483       1.79235483
C        2.38594111      -1.25358461       2.93666552
N        6.58100539      -1.50992065      10.57463396
N        7.48656573      -2.48471710      10.31107411
C        7.59237574      -3.41987186      11.19938678
C        8.53912762      -4.53717006      11.01050507
C        8.64713993      -5.51512358      12.00363142
C        9.54120069      -6.57473872      11.83492405
C       10.32147965      -6.65568912      10.67947855
C       10.20526028      -5.67642035       9.69322500
C        9.31716316      -4.61571762       9.85051443
H        8.15603448      -0.73579965       8.58496323
H        7.10612847       0.52476990       7.97177197
H        6.40839786      -2.47309604       7.84403240
H        7.23434688      -1.60938831       6.55711317
H        5.30225902      -0.04398016       6.33528067
H        4.43016218      -0.92982473       7.60333825
H        3.58599429      -0.45507501       5.01005902
H        4.03160679      -4.04760829       3.98574028
H        2.98087209      -4.96307298       1.98814274
H        1.54333187      -3.54651227       0.55249935
H        2.21094463      -0.21063847       3.18489861
H        6.04874416      -1.50965657      11.43790189
H        6.98529928      -3.42226844      12.12259487
H        8.04556700      -5.46487462      12.90737765
H        9.63150580      -7.34009517      12.60235857
H       11.01485026      -7.48401052      10.55570870
H        9.22732190      -3.85688629       9.07674613
C       11.01074315      -5.76158101       8.50261801
C       11.68533505      -5.83290307       7.50548465
Br      12.77609310      -5.94822481       5.89320435
C       -0.00445707       0.01189536      -1.78238275
H       -0.66409135       0.67374010      -2.43557963
H        0.65740317      -0.63156657      -2.45157240
C       -0.90989263      -0.90692880      -0.91072765
C        0.90977584       0.90977584      -0.90977584
C       -0.00465871       1.77757030       0.00794375
H       -0.66225468       2.44313916      -0.64384735
H        0.64322798       2.43503045       0.67728295
C       -1.78241447       0.00034974      -0.00472694
H       -2.45427497      -0.65498947       0.64260836
H       -2.43311707       0.67328779      -0.65473579
C       -0.91132561       0.90220522       0.91563759
C       -0.01476271      -0.02253852       1.78660255
H       -0.67934791      -0.69751639       2.42135241
H        0.63392994       0.61504881       2.47327442
C        0.01484550      -1.77751727      -0.01636693
H        0.67870853      -2.42144646      -0.68295456
H       -0.62264859      -2.45592969       0.64226336
C        1.78714474       0.01002794       0.00389507
H        2.44202412       0.67113390       0.66197326
H        2.45385902      -0.65136977      -0.64189061
C        0.91606151      -0.90478549       0.90901405
