186
Properties=species:S:1:pos:R:3 pbc="F F F"
O        9.39066976       6.38969195       0.70893264
C        9.14505958       7.12107899      -0.25180466
C        7.78330686       7.76278676      -0.43518445
C        6.92728475       7.01292462      -1.45166305
C        6.42726050       5.66661147      -0.92113891
C        5.55017105       4.96710303      -1.94939319
O        5.68035715       5.17723750      -3.15048496
N        4.65593703       4.08496162      -1.36545242
C        3.64145188       3.34650107      -2.01390675
C        3.39204038       3.40631748      -3.38794881
C        2.35153718       2.66655617      -3.95910565
C        1.54752146       1.85801225      -3.16085484
C        1.79235483       1.79235483      -1.79235483
C        2.83145821       2.52792941      -1.21680362
N       10.09221635       7.35330142      -1.22004223
N        9.84346244       8.14875799      -2.29013652
C       10.80008464       8.25649980      -3.15504995
C       10.63481130       9.08783676      -4.36415469
C       11.69911670       9.20361963      -5.26315860
C       11.55303447       9.98918316      -6.40864582
C       10.34939723      10.65386579      -6.65338430
C        9.29246902      10.53065807      -5.75177853
Br       7.66425721      11.43154280      -6.08530405
C        9.42663165       9.75008344      -4.60668013
H        7.91899868       8.80242984      -0.75536884
H        7.28376972       7.80879642       0.53943560
H        7.48193050       6.85912843      -2.38446737
H        6.05966626       7.63481456      -1.70636754
H        5.85797483       5.82544362       0.00189861
H        7.26727563       5.00045110      -0.69559842
H        4.71989273       3.96977293      -0.36146267
H        3.98750782       4.02619852      -4.05124902
H        2.17252065       2.72975834      -5.02980882
H        0.73873723       1.29066830      -3.61293797
H        2.99904193       2.46186501      -0.14557476
H       10.99271299       6.90209705      -1.10149258
H       11.76644811       7.73616793      -3.02754654
H       12.64100835       8.69132657      -5.08548434
H       12.37577355      10.08465197      -7.11353401
H       10.24370755      11.26318743      -7.54767449
H        8.59815034       9.65397457      -3.90882941
O        0.07292212      -4.84871979     -10.29563141
C       -1.14881759      -4.94773135     -10.42139429
C       -2.07622048      -3.78676626     -10.11829132
C       -2.72950371      -3.91688009      -8.74548862
C       -1.74479668      -3.67099401      -7.59922019
C       -2.44137958      -3.77508292      -6.25020478
O       -3.44523394      -4.46309840      -6.09974727
N       -1.79425762      -3.04602147      -5.26607199
C       -2.21917486      -2.84916269      -3.93352215
C       -3.39664666      -3.38524369      -3.40441632
C       -3.76926199      -3.12652306      -2.08141393
C       -2.96724809      -2.32709666      -1.27204381
C       -1.79235483      -1.79235483      -1.79235483
C       -1.41450020      -2.04893589      -3.11275515
N       -1.72283368      -6.13510202     -10.80762430
N       -3.06525115      -6.27075433     -10.94635147
C       -3.48833264      -7.44899846     -11.27430329
C       -4.93134315      -7.71361164     -11.44184796
C       -5.35077934      -8.99132577     -11.82378982
C       -6.71340040      -9.25080178     -11.98666128
C       -7.65029579      -8.23847671     -11.76787482
C       -7.22243766      -6.96743903     -11.38502893
Br      -8.49266897      -5.59880540     -11.08962969
C       -5.86664930      -6.69733924     -11.21940668
H       -2.84737600      -3.73376399     -10.89565738
H       -1.50562481      -2.85387652     -10.19362920
H       -3.19133504      -4.90419124      -8.63000003
H       -3.54330895      -3.18414041      -8.67339900
H       -1.29796335      -2.67604431      -7.70751218
H       -0.93831150      -4.41238834      -7.61262531
H       -0.93279972      -2.58549630      -5.53283230
H       -4.05799479      -4.00985436      -3.99710620
H       -4.69092321      -3.55083485      -1.69032975
H       -3.26735865      -2.12796279      -0.24702205
H       -0.49452992      -1.61639128      -3.49556050
H       -1.09703631      -6.91289403     -10.98637229
H       -2.79686268      -8.29508543     -11.43821448
H       -4.63262806      -9.78853946     -11.99665176
H       -7.04858535     -10.24201428     -12.28335991
H       -8.70926534      -8.44880131     -11.89650282
H       -5.53840789      -5.70571428     -10.91683215
O        0.44049110       5.63327769       9.87864249
C       -0.77287374       5.65281114      10.09225835
C       -1.62598366       4.40735410       9.94794031
C       -2.38546879       4.38164787       8.62475576
C       -1.47041372       4.11886553       7.42573163
C       -2.26918218       4.06600198       6.13148311
O       -3.33214902       4.66534470       6.01058588
N       -1.64012379       3.31099295       5.15523433
C       -2.14399629       2.97993492       3.87792850
C       -3.39518830       3.38591805       3.40520033
C       -3.84151568       2.99790105       2.13778226
C       -3.04023908       2.19788320       1.32826628
C       -1.79235483       1.79235483       1.79235483
C       -1.34083951       2.17842122       3.05693051
N       -1.40861241       6.82194860      10.43499900
N       -2.74389390       6.87016094      10.66830210
C       -3.23308152       8.03662253      10.94193034
C       -4.67639475       8.20800705      11.20240094
C       -5.16583222       9.47786578      11.52219693
C       -6.52915335       9.64961717      11.77209293
C       -7.39722644       8.55786825      11.70155263
C       -6.90000431       7.29518878      11.37971254
Br      -8.07714081       5.81894744      11.28501581
C       -5.54284384       7.11216239      11.12838898
H       -2.33208545       4.35955956      10.78515235
H       -0.98005703       3.52717182      10.04590169
H       -2.93043725       5.32069514       8.47439391
H       -3.14241372       3.58832527       8.67010936
H       -0.94028149       3.17056962       7.57066873
H       -0.72568922       4.91566129       7.32197464
H       -0.72811950       2.93660773       5.38640110
H       -4.05864529       4.00535731       4.00095276
H       -4.81957293       3.32216081       1.79035407
H       -3.39749714       1.89773721       0.34710914
H       -0.36441970       1.84520399       3.39685801
H       -0.83438030       7.65476572      10.50715660
H       -2.59998440       8.94095205      10.98922614
H       -4.50172528      10.33624220      11.57985179
H       -6.91855804      10.63405504      12.02134645
H       -8.45727071       8.70012824      11.89717053
H       -5.16073752       6.12634934      10.87386747
O       10.48881029      -4.41264019       0.16997860
C       10.23982025      -5.35761433       0.92050865
C        9.02911517      -6.24545902       0.70670388
C        7.87647903      -5.87857157       1.63682181
C        7.20680536      -4.55682640       1.25137913
C        6.04226984      -4.24447267       2.17992476
O        6.00679248      -4.67293338       3.32835374
N        5.09774762      -3.42599482       1.58260864
C        3.85739155      -3.02101897       2.12344918
C        3.39568599      -3.40495142       3.38566926
C        2.14314186      -2.98717921       3.84687792
C        1.33720993      -2.17999146       3.04918716
C        1.79235483      -1.79235483       1.79235483
C        3.04343281      -2.20542330       1.32733513
N       11.03568983      -5.62026972       2.00960045
N       10.77830351      -6.65010369       2.85394974
C       11.57515363      -6.76986263       3.86661813
C       11.38196736      -7.84878537       4.85605002
C       12.27843468      -7.96501609       5.92244416
C       12.10510548      -8.98342730       6.86233068
C       11.04105673      -9.87918685       6.73640373
C       10.15060621      -9.75400959       5.67028982
Br       8.71116319     -10.96792621       5.50201466
C       10.31341511      -8.74251338       4.72746672
H        9.32017217      -7.29024478       0.86638041
H        8.72310472      -6.17342027      -0.34339446
H        8.22043354      -5.82874156       2.67635121
H        7.12565638      -6.67799543       1.59719654
H        6.84812382      -4.61601695       0.21737907
H        7.91692418      -3.72546783       1.32093314
H        5.30636991      -3.09670970       0.64804871
H        3.98465756      -4.03795578       4.04234202
H        1.80156643      -3.29973056       4.83079083
H        0.36380956      -1.86432810       3.41420583
H        3.37349056      -1.89195046       0.34104069
H       11.83029156      -5.00784112       2.15816995
H       12.42046154      -6.07777308       4.03192797
H       13.11035912      -7.27447025       6.03298990
H       12.79764362      -9.08107661       7.69523932
H       10.91296939     -10.66901749       7.47258259
H        9.61401477      -8.64667811       3.90026144
C       -0.00445707       0.01189536      -1.78238275
H       -0.66409135       0.67374010      -2.43557963
H        0.65740317      -0.63156657      -2.45157240
C       -0.90989263      -0.90692880      -0.91072765
C        0.90977584       0.90977584      -0.90977584
C       -0.00465871       1.77757030       0.00794375
H       -0.66225468       2.44313916      -0.64384735
H        0.64322798       2.43503045       0.67728295
C       -1.78241447       0.00034974      -0.00472694
H       -2.45427497      -0.65498947       0.64260836
H       -2.43311707       0.67328779      -0.65473579
C       -0.91132561       0.90220522       0.91563759
C       -0.01476271      -0.02253852       1.78660255
H       -0.67934791      -0.69751639       2.42135241
H        0.63392994       0.61504881       2.47327442
C        0.01484550      -1.77751727      -0.01636693
H        0.67870853      -2.42144646      -0.68295456
H       -0.62264859      -2.45592969       0.64226336
C        1.78714474       0.01002794       0.00389507
H        2.44202412       0.67113390       0.66197326
H        2.45385902      -0.65136977      -0.64189061
C        0.91606151      -0.90478549       0.90901405
