137
Properties=species:S:1:pos:R:3 pbc="F F F"
C        0.00000000       0.00000000       0.00000000
C        0.88128917       0.88128917      -0.88128917
C        1.25792415       2.14631715      -0.44076421
C        2.08179101       2.94659774      -1.24001926
C        2.56427644       2.47309516      -2.45707242
C        2.14103785       1.21773013      -2.90755089
C        1.30672013       0.41731147      -2.12231345
O        3.39475603       3.13691795      -3.30908432
C        4.35093358       4.07829950      -2.82213873
H        5.09284625       4.09206666      -3.63446744
C        3.76577184       5.49483396      -2.83194114
C        5.19735940       3.86261826      -1.52965173
O        4.67794727       3.79088584      -0.41545805
N        6.57701695       3.84735520      -1.78755298
N        7.51229693       3.54841438      -0.72767705
C        7.55996104       4.50941163       0.21588751
H        7.67224906       4.23520231       1.26093858
C        7.86954273       5.87095090      -0.09919613
C        8.38627125       6.43032174      -1.25912484
C        8.62304920       7.83249178      -1.16162011
C        8.26099314       8.30084170       0.07340358
S        7.65784598       7.09897947       1.10044856
H        0.94118468       2.52091396       0.52822229
H        2.35597976       3.92632645      -0.86362121
H        2.48863593       0.85064536      -3.87131322
H        1.01343996      -0.56495776      -2.48061737
H        3.65575379       5.84491356      -3.86287201
H        4.40587362       6.20275250      -2.29849014
H        2.76604800       5.53005369      -2.39060140
H        6.86473341       3.45230254      -2.67556271
H        8.59736132       5.82416904      -2.13232620
H        9.03599772       8.43827111      -1.95499776
C        8.38920268       9.68006742       0.46697532
C        8.49657817      10.83516896       0.79659166
Br       8.67019526      12.70287046       1.32955340
C       -0.88128917      -0.88128917      -0.88128917
C       -1.03742369      -0.57740788      -2.23017393
C       -1.82960022      -1.39630135      -3.04250642
C       -2.43198953      -2.53905035      -2.52340415
C       -2.30310273      -2.80711963      -1.15609651
C       -1.52544505      -1.98677008      -0.33412992
O       -3.19700451      -3.43163053      -3.21212327
C       -2.97577155      -3.67432375      -4.60127650
H       -3.41247662      -4.67578897      -4.73111476
C       -3.86896454      -2.76799284      -5.45558956
C       -1.55955324      -3.78399257      -5.24608358
O       -0.78065638      -2.83060104      -5.27303375
N       -1.33565588      -5.03561344      -5.84065581
N       -0.03920862      -5.35873419      -6.39044554
C        0.26234901      -4.63158162      -7.48425256
H        1.28071017      -4.28719146      -7.64003149
C       -0.57511003      -4.61954077      -8.64503896
C       -1.63454665      -5.44315441      -8.99801677
C       -2.18015393      -5.15426879     -10.28273837
C       -1.52349766      -4.10180824     -10.86312537
S       -0.27876541      -3.47235219      -9.90525929
H       -0.53584271       0.27703272      -2.67506637
H       -1.92736077      -1.12923550      -4.08933115
H       -2.79467089      -3.68166399      -0.73425962
H       -1.41763680      -2.23013744       0.71867466
H       -4.91292780      -3.08380391      -5.36680764
H       -3.59132195      -2.80326610      -6.51252821
H       -3.83691565      -1.72698696      -5.12280047
H       -1.77035376      -5.83253909      -5.38970581
H       -1.97582937      -6.23567566      -8.34235154
H       -2.99749071      -5.69704789     -10.73472800
C       -1.85112079      -3.58466031     -12.16651368
C       -2.12550517      -3.15154891     -13.25810140
Br      -2.56916149      -2.45124442     -15.02310641
C       -0.88128917       0.88128917       0.88128917
C       -2.18801682       1.16248550       0.49450319
C       -3.00230016       1.95430406       1.31180378
C       -2.53116243       2.43137704       2.53190455
C       -1.20139674       2.17842032       2.88650181
C       -0.37638014       1.40040025       2.06956466
O       -3.23015621       3.18136028       3.42924182
C       -4.64617250       3.05123441       3.55396489
H       -4.82132704       3.42377748       4.57427584
C       -5.36174849       4.07036648       2.66043197
C       -5.39733656       1.68482742       3.50746541
O       -5.40632928       0.98065851       2.49730338
N       -6.10128975       1.41840433       4.69223105
N       -6.76586523       0.14847062       4.87405251
C       -7.81904570      -0.01484634       4.04928581
H       -8.02033384      -0.99083625       3.61701519
C       -8.91243756       0.90844819       4.01880401
C       -9.25113646       1.93023177       4.89434959
C      -10.46730897       2.59270497       4.55714715
C      -11.01025063       2.05992972       3.41825091
S      -10.09829813       0.79326196       2.76481680
H       -2.60039663       0.75927156      -0.42579183
H       -4.01567381       2.15148915       0.97876445
H       -0.81421400       2.57201692       3.82436359
H        0.64405007       1.19445967       2.37868997
H       -5.22304335       5.07903712       3.06145889
H       -6.43542419       3.87335456       2.59833751
H       -4.95272427       4.08739019       1.64658862
H       -5.68323734       1.75876066       5.55060066
H       -8.63586119       2.16220083       5.75579455
H      -10.90013085       3.40150371       5.12763203
C      -12.24297954       2.52342864       2.83588660
C      -13.27539000       2.91160899       2.34815649
Br     -14.94471039       3.53926377       1.55953816
C        0.88128917      -0.88128917       0.88128917
C        0.71569951      -0.86650554       2.26280046
C        1.51022585      -1.68879803       3.06938412
C        2.43946130      -2.55507418       2.49990855
C        2.62640477      -2.52645283       1.11346127
C        1.84720266      -1.69793999       0.30120241
O        3.24721165      -3.42493251       3.16861415
C        2.83655531      -4.01119096       4.40362554
H        3.45681302      -4.91904013       4.44352721
C        3.33059273      -3.17363298       5.58832124
C        1.38834487      -4.52039539       4.68088912
O        0.42285564      -3.75645039       4.70498514
N        1.34805362      -5.89320520       4.97066631
N        0.07999745      -6.56333413       5.14505678
C       -0.57252380      -6.16953774       6.25647123
H       -1.65320278      -6.06117474       6.23854083
C        0.01409349      -6.26709989       7.55849637
C        1.14933526      -6.94138735       7.98499521
C        1.37153970      -6.85532538       9.39029600
C        0.39956482      -6.09919482       9.98967163
S       -0.75866365      -5.50798590       8.90705464
H       -0.03842851      -0.24094567       2.73135919
H        1.35226453      -1.65171350       4.14194939
H        3.37127865      -3.17828406       0.66103180
H        1.99129145      -1.71283265      -0.77502453
H        4.41708062      -3.26509708       5.68136165
H        2.87981438      -3.49671398       6.53058791
H        3.12569761      -2.10821345       5.45279202
H        2.02630287      -6.47457828       4.49171751
H        1.77459472      -7.48939319       7.28986865
H        2.19362834      -7.32745637       9.90818188
C        0.35823729      -5.83873938      11.40531812
C        0.32362548      -5.62060794      12.59092206
Br       0.26766111      -5.26790786      14.50794335
