129
Properties=species:S:1:pos:R:3 pbc="F F F"
C        0.00000000       0.00000000       0.00000000
C        0.88128917       0.88128917      -0.88128917
C        1.25792415       2.14631715      -0.44076421
C        2.08179101       2.94659774      -1.24001926
C        2.56427644       2.47309516      -2.45707242
C        2.14103785       1.21773013      -2.90755089
C        1.30672013       0.41731147      -2.12231345
O        3.39475603       3.13691795      -3.30908432
C        4.35093358       4.07829950      -2.82213873
H        5.09284625       4.09206666      -3.63446744
C        3.76577184       5.49483396      -2.83194114
C        5.19735940       3.86261826      -1.52965173
O        4.67794727       3.79088584      -0.41545805
N        6.57701695       3.84735520      -1.78755298
N        7.51229693       3.54841438      -0.72767705
C        7.55996104       4.50941163       0.21588751
H        7.67224906       4.23520231       1.26093858
C        7.86954273       5.87095090      -0.09919613
C        8.38627125       6.43032174      -1.25912484
C        8.62304920       7.83249178      -1.16162011
C        8.26099314       8.30084170       0.07340358
Br       8.42783444      10.09565203       0.58556531
S        7.65784598       7.09897947       1.10044856
H        0.94118468       2.52091396       0.52822229
H        2.35597976       3.92632645      -0.86362121
H        2.48863593       0.85064536      -3.87131322
H        1.01343996      -0.56495776      -2.48061737
H        3.65575379       5.84491356      -3.86287201
H        4.40587362       6.20275250      -2.29849014
H        2.76604800       5.53005369      -2.39060140
H        6.86473341       3.45230254      -2.67556271
H        8.59736132       5.82416904      -2.13232620
H        9.03599772       8.43827111      -1.95499776
C       -0.88128917      -0.88128917      -0.88128917
C       -0.98528893      -0.61636587      -2.24335071
C       -1.77769756      -1.43588285      -3.05482759
C       -2.43258680      -2.54189242      -2.51996480
C       -2.35522744      -2.76959348      -1.14149794
C       -1.57757720      -1.94785708      -0.32091077
O       -3.20410390      -3.43188149      -3.20477292
C       -2.94749788      -3.72607785      -4.57779608
H       -3.41202288      -4.71706923      -4.69028825
C       -3.78383069      -2.82030962      -5.48840664
C       -1.51609071      -3.90072065      -5.17281803
O       -0.70636935      -2.97351230      -5.20440952
N       -1.31422477      -5.17726561      -5.72043475
N       -0.01232690      -5.55833391      -6.21772755
C        0.34658895      -4.87664350      -7.32343061
H        1.37990613      -4.56946545      -7.45695346
C       -0.45334622      -4.87589529      -8.51044825
C       -1.52725808      -5.67694769      -8.87151205
C       -2.02282712      -5.41275818     -10.18157579
C       -1.31472364      -4.40062022     -10.77308740
Br      -1.66589038      -3.76973629     -12.50229449
S       -0.08087983      -3.77980075      -9.79569631
H       -0.44273072       0.20717300      -2.69831863
H       -1.83401368      -1.19981442      -4.11209931
H       -2.88771096      -3.61427292      -0.70861063
H       -1.51064565      -2.16037208       0.74191816
H       -4.83970727      -3.10029923      -5.42353286
H       -3.47456396      -2.89833752      -6.53421478
H       -3.72862192      -1.77061701      -5.18746415
H       -1.78830063      -5.94524309      -5.25905494
H       -1.91427096      -6.43683891      -8.20274670
H       -2.84272494      -5.94402379     -10.64251786
C       -0.88128917       0.88128917       0.88128917
C       -2.11561671       1.31861987       0.41076892
C       -2.93214523       2.11036407       1.22589870
C       -2.53992608       2.43214962       2.52236833
C       -1.27721952       2.02342545       2.96567390
C       -0.44888047       1.24430723       2.15315736
O       -3.25342071       3.16442642       3.42291118
C       -4.68080378       3.15976369       3.41080434
H       -4.91947949       3.45702509       4.44287577
C       -5.21625772       4.31652583       2.55976340
C       -5.54025852       1.88061190       3.16875897
O       -5.51404375       1.27120994       2.09903747
N       -6.37466568       1.58044473       4.25681472
N       -7.16165989       0.36879704       4.25793143
C       -8.14146189       0.37928357       3.33273970
H       -8.38480022      -0.53163638       2.79334894
C       -9.14233623       1.40191115       3.29544238
C       -9.47279994       2.37119624       4.23172163
C      -10.58885279       3.17363687       3.85467142
C      -11.06488134       2.79639994       2.62714999
Br     -12.53067183       3.61372380       1.79352553
S      -10.20851952       1.51018760       1.93766977
H       -2.47176966       1.03834451      -0.57623782
H       -3.88803177       2.43168953       0.82620611
H       -0.94856775       2.29504028       3.96698647
H        0.51552461       0.91570907       2.52891511
H       -5.02914640       5.26855108       3.06584187
H       -6.29215728       4.22911757       2.38584141
H       -4.71235525       4.38266349       1.59168434
H       -6.01244936       1.80324271       5.17690659
H       -8.92475135       2.46741269       5.16169252
H      -11.00206908       3.96728859       4.45990892
C        0.88128917      -0.88128917       0.88128917
C        0.41181590      -1.31638500       2.11680461
C        1.21189388      -2.14025868       2.91625544
C        2.46026794      -2.56470878       2.46946731
C        2.93773408      -2.08306563       1.24551915
C        2.15129779      -1.24827665       0.44677062
O        3.31786508      -3.38865727       3.13423597
C        2.83311218      -4.39290225       4.02535738
H        3.66987131      -5.10707622       4.04243282
C        2.77482861      -3.85744881       5.46026953
C        1.57889276      -5.27433169       3.73640494
O        0.45032632      -4.79053983       3.64342502
N        1.88507141      -6.64315514       3.68369858
N        0.86908848      -7.60260281       3.31669707
C       -0.10405959      -7.71545671       4.24208805
H       -1.13474018      -7.85324136       3.92801161
C        0.17560331      -8.06150271       5.60258374
C        1.33334117      -8.55806345       6.18431320
C        1.19699591      -8.84669660       7.57346858
C       -0.06495841      -8.54295993       8.01042975
Br      -0.63112860      -8.78937737       9.77967240
S       -1.07134981      -7.93322448       6.79450223
H       -0.57967861      -1.04568922       2.46786575
H        0.81250770      -2.46093009       3.87248963
H        3.92483276      -2.38502137       0.90074038
H        2.53203149      -0.90905687      -0.51198878
H        3.78893047      -3.72505008       5.84955880
H        2.24047259      -4.53942108       6.12722260
H        2.29799168      -2.87498368       5.51372773
H        2.79536175      -6.88687540       3.31036151
H        2.23327763      -8.71839124       5.60218770
H        1.98343517      -9.25355603       8.19227539
