150
Properties=species:S:1:pos:R:3 pbc="F F F"
C        1.79119320       1.79119320      -1.79119320
C        2.16782818       3.05622117      -1.35066823
C        2.99169503       3.85650176      -2.14992328
C        3.47418047       3.38299919      -3.36697645
C        3.05094188       2.12763415      -3.81745491
C        2.21662416       1.32721549      -3.03221748
O        4.30466006       4.04682197      -4.21898835
C        5.26083761       4.98820352      -3.73204275
H        6.00275027       5.00197069      -4.54437147
C        4.67567587       6.40473799      -3.74184517
C        6.10726343       4.77252228      -2.43955575
O        5.58785130       4.70078986      -1.32536208
N        7.48692098       4.75725922      -2.69745700
N        8.42220096       4.45831840      -1.63758107
C        8.46986507       5.41931565      -0.69401652
H        8.58215308       5.14510634       0.35103456
C        8.77944675       6.78085492      -1.00910016
C        9.29617527       7.34022576      -2.16902886
C        9.53295323       8.74239580      -2.07152413
C        9.17089717       9.21074572      -0.83650045
Br       9.33773847      11.00555606      -0.32433871
S        8.56775000       8.00888349       0.19054453
H        1.85108870       3.43081799      -0.38168174
H        3.26588378       4.83623047      -1.77352524
H        3.39853995       1.76054939      -4.78121724
H        1.92334399       0.34494627      -3.39052139
H        4.56565781       6.75481758      -4.77277604
H        5.31577765       7.11265653      -3.20839416
H        3.67595202       6.43995771      -3.30050542
H        7.77463743       4.36220656      -3.58546673
H        9.50726535       6.73407307      -3.04223022
H        9.94590174       9.34817513      -2.86490179
C       -1.79119320      -1.79119320      -1.79119320
C       -2.54250893      -1.21905773      -2.81315093
C       -3.33536196      -2.02920670      -3.63355141
C       -3.34879970      -3.41101774      -3.46433866
C       -2.62388502      -3.96746307      -2.40468285
C       -1.84037734      -3.16437808      -1.57130171
O       -4.04904957      -4.30877419      -4.21264662
C       -4.33627873      -4.05680367      -5.58800148
H       -4.49843638      -5.07277735      -5.97787869
C       -5.70361165      -3.38077204      -5.73787533
C       -3.31726939      -3.41957014      -6.58250192
O       -2.90341598      -2.26829788      -6.44228938
N       -3.01459393      -4.26840835      -7.65863492
N       -2.00522746      -3.89160969      -8.62126328
C       -2.36933839      -2.83688990      -9.37696895
H       -1.63038495      -2.09084623      -9.65499368
C       -3.56527983      -2.84063047     -10.16349153
C       -4.41044612      -3.88519199     -10.50979178
C       -5.47431425      -3.49716325     -11.37539566
C       -5.41282968      -2.15656070     -11.64875295
Br      -6.63859634      -1.27244043     -12.75659646
S       -4.11379810      -1.37395235     -10.89833851
H       -2.50990626      -0.15026523      -3.00341695
H       -3.90637675      -1.54854543      -4.42071732
H       -2.65131542      -5.04368762      -2.24530353
H       -1.26463093      -3.62190120      -0.77227952
H       -6.49921784      -4.09359299      -5.50044060
H       -5.86681148      -3.01483780      -6.75517906
H       -5.82747378      -2.54476105      -5.04418032
H       -3.00173654      -5.26199777      -7.45857642
H       -4.23610006      -4.89378180     -10.15368677
H       -6.22234736      -4.17283896     -11.76379235
C       -1.79119320       1.79119320       1.79119320
C       -2.81511853       1.21946375       2.54013530
C       -3.61060458       2.02447153       3.36304396
C       -3.36154884       3.38980666       3.47280061
C       -2.35820288       3.95787175       2.67995631
C       -1.56798914       3.16369452       1.84437347
O       -4.03874478       4.27288885       4.25883675
C       -4.63194607       3.85951783       5.48961998
H       -4.69842167       4.80875631       6.04191445
C       -6.09422948       3.45430714       5.27372240
C       -3.95118785       2.87658803       6.49156557
O       -3.71371527       1.70524577       6.19504220
N       -3.73307682       3.45835384       7.75020655
N       -3.01224997       2.73416751       8.77168296
C       -3.68883758       1.66312140       9.23123826
H       -3.15375809       0.74929044       9.47317633
C       -5.00015428       1.77515532       9.79409223
C       -5.71294254       2.89534310      10.19714425
C       -6.97718091       2.58957416      10.78011809
C       -7.19377726       1.23725877      10.78710731
Br      -8.74464325       0.44455795      11.47843203
S       -5.91876976       0.34639856      10.12092064
H       -2.99814094       0.14917650       2.51627098
H       -4.39846420       1.54395341       3.93322188
H       -2.17511289       5.02920350       2.73599019
H       -0.77701902       3.62287921       1.25891342
H       -6.69760968       4.34063358       5.05500817
H       -6.51509350       2.96529519       6.15643964
H       -6.21373132       2.78610254       4.41658129
H       -3.51661781       4.44855895       7.75713397
H       -5.30691939       3.89363210      10.08301715
H       -7.66548702       3.32713737      11.16635427
C        1.79119320      -1.79119320       1.79119320
C        2.16784882      -3.05621128       1.35065748
C        2.99171568      -3.85649157       2.14991281
C        3.47418066      -3.38299789       3.36697755
C        3.05092143      -2.12764343       3.81746609
C        2.21660353      -1.32722536       3.03222824
O        4.30465797      -4.04682094       4.21899147
C        5.26085281      -4.98818502       3.73204605
H        6.00275581      -5.00195304       4.54438358
C        4.67570809      -6.40472668       3.74182424
C        6.10729166      -4.77247790       2.43957190
O        5.58789214      -4.70073828       1.32537281
N        7.48694590      -4.75720126       2.69749004
N        8.42223509      -4.45823630       1.63762904
C        8.46992225      -5.41922155       0.69405343
H        8.58221959      -5.14499823      -0.35099297
C        8.77951660      -6.78076089       1.00912434
C        9.29623785      -7.34013951       2.16905253
C        9.53303395      -8.74230551       2.07153370
C        9.17099851      -9.21064486       0.83649997
Br       9.33786772     -11.00544698       0.32431853
S        8.56784922      -8.00877750      -0.19053777
H        1.85112560      -3.43080021       0.38166262
H        3.26592085      -4.83621241       1.77350623
H        3.39850340      -1.76056612       4.78123706
H        1.92330713      -0.34496402       3.39054049
H        4.56568180      -6.75482009       4.77274955
H        5.31582490      -7.11263102       3.20837242
H        3.67599001      -6.43995317       3.30047197
H        7.77464683      -4.36215587       3.58550803
H        9.50731002      -6.73399483       3.04226378
H        9.94598020      -9.34808944       2.86490902
C       -0.00445707       0.01189536      -1.78238275
H       -0.66409135       0.67374010      -2.43557963
H        0.65740317      -0.63156657      -2.45157240
C       -0.90989263      -0.90692880      -0.91072765
C        0.90977584       0.90977584      -0.90977584
C       -0.00465871       1.77757030       0.00794375
H       -0.66225468       2.44313916      -0.64384735
H        0.64322798       2.43503045       0.67728295
C       -1.78241447       0.00034974      -0.00472694
H       -2.45427497      -0.65498947       0.64260836
H       -2.43311707       0.67328779      -0.65473579
C       -0.91132561       0.90220522       0.91563759
C       -0.01476271      -0.02253852       1.78660255
H       -0.67934791      -0.69751639       2.42135241
H        0.63392994       0.61504881       2.47327442
C        0.01484550      -1.77751727      -0.01636693
H        0.67870853      -2.42144646      -0.68295456
H       -0.62264859      -2.45592969       0.64226336
C        1.78714474       0.01002794       0.00389507
H        2.44202412       0.67113390       0.66197326
H        2.45385902      -0.65136977      -0.64189061
C        0.91606151      -0.90478549       0.90901405
