129
Properties=species:S:1:pos:R:3 pbc="F F F"
C        0.00000000       0.00000000       0.00000000
C        0.75486190      -0.99015414      -6.88873539
C        1.19438443      -0.48136357      -5.53956745
O        1.14964926      -1.21354896      -4.55726585
N        1.66945823       0.81134715      -5.57294598
C        2.06972915       1.56135819      -4.46877207
C        2.93496145       2.64568943      -4.58925746
O        3.14991715       3.20455958      -3.36325105
C        2.44925517       2.48138008      -2.45435447
C        2.43198000       2.73728306      -1.08346066
C        1.63249472       1.90300445      -0.29810954
C        0.88348210       0.88348210      -0.88348210
C        0.91763797       0.65261994      -2.26537142
C        1.74400689       1.45696179      -3.07883190
C        3.56497192       3.18655544      -5.78386072
O        3.08945472       2.93347534      -6.89253436
C        4.80278516       3.94980812      -5.60360189
C        5.63581869       4.12614697      -4.50749523
C        6.79249449       4.91251253      -4.80182443
C        6.80512848       5.29837960      -6.11564195
S        5.45845492       4.76124878      -6.98264507
H       -0.27097083      -1.36053121      -6.80780435
H        1.41731903      -1.80403623      -7.19572361
H        0.77952009      -0.20836375      -7.65226977
H        1.91586861       1.20339908      -6.48141290
H        3.01019955       3.54583203      -0.65234296
H        1.59414783       2.06401787       0.77687814
H        0.31137327      -0.13752179      -2.69612682
H        5.45797684       3.70064554      -3.52695568
H        7.56690156       5.15656521      -4.08505787
C        7.86500366       6.07543076      -6.70424716
C        8.75264913       6.72621110      -7.19720403
Br      10.18789677       7.77846787      -7.99427359
C       -0.59862451      -6.92074537       0.86592673
C       -0.66615685      -5.64779096       0.06135949
O        0.26102733      -4.84628590       0.09189241
N       -1.80976171      -5.54420054      -0.69978911
C       -2.17401987      -4.44740494      -1.47843460
C       -3.06508646      -4.56259739      -2.54222449
O       -3.25403335      -3.34191968      -3.12177475
C       -2.48101724      -2.44784704      -2.45612543
C       -2.39192147      -1.09166787      -2.76913438
C       -1.56284693      -0.31237901      -1.95838277
C       -0.88348210      -0.88348210      -0.88348210
C       -0.99576909      -2.24936388      -0.59049636
C       -1.79805612      -3.06775826      -1.41398618
C       -3.74860757      -5.74623737      -3.04054314
O       -3.87210660      -6.73218429      -2.31117353
C       -4.18858164      -5.72944018      -4.43817335
C       -3.92569024      -4.85786711      -5.48590354
C       -4.51956425      -5.26750339      -6.71976380
C       -5.20518233      -6.44343963      -6.57052807
S       -5.16925798      -7.04189587      -4.99119493
H       -0.42664590      -6.66487632       1.91521992
H        0.22822840      -7.53286411       0.49562929
H       -1.52328975      -7.49988591       0.79974955
H       -2.35654985      -6.39112593      -0.85300482
H       -2.94188375      -0.66633953      -3.60015126
H       -1.46014400       0.74942337      -2.17056693
H       -0.46866014      -2.66390181       0.26258365
H       -3.31614613      -3.96577491      -5.40365702
H       -4.42524437      -4.72872200      -7.65455827
C       -5.88107158      -7.11071605      -7.65289395
C       -6.44712882      -7.66956006      -8.55937537
Br      -7.36239551      -8.57316355     -10.02507917
C       -3.31215799      -2.35753400       5.69881916
C       -3.11590546      -1.40796636       4.54464922
O       -2.91895206      -1.83990120       3.41431530
N       -3.23374714      -0.08296409       4.90296831
C       -3.02636860       1.00990544       4.06358537
C       -3.57929801       2.25956659       4.33104375
O       -3.21001090       3.14597354       3.36174335
C       -2.44298295       2.47703257       2.46497420
C       -1.88935754       3.04538968       1.31797649
C       -1.10346200       2.21090293       0.51924378
C       -0.88348210       0.88348210       0.88348210
C       -1.44991230       0.34085754       2.04485950
C       -2.27732763       1.15053453       2.85193840
C       -4.42681692       2.66773698       5.44083418
O       -4.44340442       1.99713577       6.47492423
C       -5.29302496       3.83106985       5.23210036
C       -5.62330556       4.55273821       4.09341711
C       -6.57444530       5.59021241       4.34217373
C       -6.94361447       5.61492607       5.66060949
S       -6.15984230       4.44667879       6.59582769
H       -2.44908242      -3.02693681       5.75415670
H       -4.22098317      -2.94132468       5.52934792
H       -3.40290681      -1.83295975       6.65347905
H       -3.67263810       0.12956182       5.79848068
H       -2.06098162       4.08437599       1.06301692
H       -0.65682553       2.61214456      -0.38768253
H       -1.24819553      -0.69108791       2.31287068
H       -5.22987326       4.35169679       3.10400801
H       -6.96592751       6.25796542       3.58463170
C       -7.91128768       6.53690068       6.19649322
C       -8.72171400       7.30905442       6.64529584
Br     -10.03210481       8.55756170       7.37097172
C        3.25962926      -5.73551610      -2.34170220
C        2.65313227      -4.86794574      -1.26848969
O        1.54048732      -4.37732020      -1.42444137
N        3.44464889      -4.75563090      -0.14652843
C        3.17439485      -3.96017322       0.96529134
C        3.74069842      -4.21828831       2.21092160
O        3.31983608      -3.28501872       3.11287298
C        2.47544318      -2.44229726       2.46724928
C        1.82507117      -1.36288740       3.06476516
C        1.00926448      -0.58505082       2.23929342
C        0.88348210      -0.88348210       0.88348210
C        1.55298813      -1.97285001       0.30979119
C        2.35563494      -2.79723238       1.12693325
C        4.65257656      -5.28311695       2.59969457
O        5.30723318      -5.87144755       1.73678369
C        4.68096737      -5.65968799       4.01553982
C        3.86073467      -5.32476120       5.08396502
C        4.22327199      -5.98471949       6.29883996
C        5.30097416      -6.80816925       6.11000662
S        5.89161149      -6.78321556       4.52752172
H        3.28322927      -5.17141599      -3.27834296
H        2.64438378      -6.63077105      -2.46614841
H        4.28050809      -6.04038078      -2.09746277
H        4.20119855      -5.42922473      -0.02974268
H        1.95033707      -1.14031397       4.11772350
H        0.47900344       0.26345480       2.66573892
H        1.44998623      -2.17189832      -0.75190624
H        3.01335267      -4.65248447       5.01974093
H        3.70341731      -5.86384366       7.24126367
C        5.86909520      -7.62318286       7.15240352
C        6.34489658      -8.30575676       8.02541092
Br       7.11422715      -9.40942102       9.43699005
