142
Properties=species:S:1:pos:R:3 pbc="F F F"
C        1.66476593      -0.08025011      -7.79863941
C        2.10428846       0.42854046      -6.44947148
O        2.05955329      -0.30364493      -5.46716987
N        2.57936226       1.72125118      -6.48285000
C        2.97963317       2.47126222      -5.37867609
C        3.84486548       3.55559345      -5.49916149
O        4.05982118       4.11446360      -4.27315508
C        3.35915919       3.39128410      -3.36425850
C        3.34188403       3.64718709      -1.99336468
C        2.54239875       2.81290847      -1.20801357
C        1.79338613       1.79338613      -1.79338613
C        1.82754200       1.56252397      -3.17527544
C        2.65391091       2.36686581      -3.98873592
C        4.47487594       4.09645946      -6.69376475
O        3.99935875       3.84337937      -7.80243838
C        5.71268919       4.85971215      -6.51350591
C        6.54572271       5.03605100      -5.41739925
C        7.70239851       5.82241655      -5.71172845
C        7.71503250       6.20828362      -7.02554597
Br       9.09336436       7.21881239      -7.79100716
S        6.36835895       5.67115281      -7.89254909
H        0.63893319      -0.45062719      -7.71770837
H        2.32722306      -0.89413221      -8.10562763
H        1.68942412       0.70154027      -8.56217379
H        2.82577264       2.11330311      -7.39131692
H        3.92010357       4.45573606      -1.56224698
H        2.50405185       2.97392189      -0.13302589
H        1.22127730       0.77238224      -3.60603084
H        6.36788087       4.61054956      -4.43685970
H        8.47680559       6.06646923      -4.99496189
C        1.24813028      -3.65330744      -6.97797807
C        0.19863939      -3.17218326      -6.00875652
O        0.31789983      -2.08382500      -5.45715305
N       -0.86312780      -4.04048301      -5.87985262
C       -1.93521138      -3.89236324      -5.00199686
C       -3.15805099      -4.52175829      -5.21981114
O       -4.02133662      -4.21838785      -4.20771539
C       -3.37502704      -3.38683998      -3.35283477
C       -3.93960719      -2.84398233      -2.19884627
C       -3.11664735      -2.02522466      -1.42144878
C       -1.79338613      -1.79338613      -1.79338613
C       -1.25201449      -2.35624434      -2.95708257
C       -2.07051438      -3.15850645      -3.78049181
C       -3.55887825      -5.39021177      -6.31601013
O       -2.69771489      -5.95007376      -6.99738785
C       -4.99185534      -5.48768989      -6.60636202
C       -6.08434034      -4.76080768      -6.15402494
C       -7.31518041      -5.16067978      -6.76068333
C       -7.11484992      -6.17142832      -7.66258386
Br      -8.48889962      -6.93079559      -8.68348870
S       -5.50095624      -6.65815147      -7.77295314
H        2.21921264      -3.65029145      -6.47493556
H        1.27614951      -2.97768128      -7.83718671
H        1.04742454      -4.66737445      -7.33318827
H       -0.97706808      -4.76043220      -6.59289239
H       -4.96619908      -3.05094169      -1.92094583
H       -3.51853811      -1.57673758      -0.51572395
H       -0.21382491      -2.17232902      -3.21353645
H       -6.02839072      -3.95373251      -5.43316691
H       -8.27774566      -4.71168044      -6.54881060
C       -5.96213993       5.04201458      -1.62099929
C       -4.94382790       4.62799983      -0.58952734
O       -3.79795340       4.35204307      -0.92691825
N       -5.43165021       4.65320060       0.69861263
C       -4.74147348       4.24851318       1.83958483
C       -5.08830330       4.70153680       3.10978031
O       -4.26298374       4.14283294       4.04162318
C       -3.37836519       3.35193848       3.38439812
C       -2.36064097       2.62280000       3.99899483
C       -1.55672986       1.84028791       3.16630302
C       -1.79338613       1.79338613       1.79338613
C       -2.82688783       2.53422778       1.20422579
C       -3.63224702       3.36116532       2.01610031
C       -6.14714628       5.62105804       3.49689584
O       -7.09492658       5.81673289       2.73351702
C       -5.98265548       6.34033137       4.76292040
C       -4.90282928       6.47126163       5.62508204
C       -5.16869482       7.33701647       6.73083222
C       -6.43907764       7.84402927       6.66575519
Br      -7.13559513       9.04685207       7.92073672
S       -7.31346885       7.28629201       5.33229999
H       -6.02865996       4.26037498      -2.38302057
H       -5.64105835       5.97991071      -2.08225058
H       -6.95486174       5.18456782      -1.18629139
H       -6.29740711       5.16437699       0.86860857
H       -2.20526745       2.66225825       5.07056091
H       -0.74762460       1.25971650       3.60365853
H       -2.99890680       2.46573968       0.13504390
H       -3.94097679       5.99363926       5.48067408
H       -4.45392118       7.57551062       7.50880491
C        6.12134172      -4.85628458      -1.59447107
C        5.06873062      -4.49226462      -0.57869484
O        3.92484159      -4.23565484      -0.93741821
N        5.52600169      -4.53739699       0.72006475
C        4.79893641      -4.17752168       1.85311339
C        5.12623733      -4.65316428       3.12021880
O        4.26533942      -4.13746624       4.04463420
C        3.37757141      -3.35210224       3.38502814
C        2.32780154      -2.66289004       3.99174421
C        1.52510609      -1.87965837       3.15855633
C        1.79338613      -1.79338613       1.79338613
C        2.85860182      -2.49454117       1.21219841
C        3.66433485      -3.32162603       2.02355175
C        6.19776249      -5.55626730       3.51107036
O        7.16809267      -5.71035244       2.76673139
C        6.02068425      -6.31015904       4.75506396
C        4.92404043      -6.48807883       5.58705370
C        5.18450564      -7.37411110       6.67792678
C        6.46815433      -7.84876949       6.63193828
Br       7.16371967      -9.06501206       7.87445219
S        7.36029927      -7.23764261       5.33411897
H        6.18689161      -4.05479249      -2.33566973
H        5.83454619      -5.78999571      -2.08582342
H        7.10655822      -4.98563174      -1.13905179
H        6.39972936      -5.03169166       0.89897165
H        2.14779833      -2.73237201       5.05791627
H        0.69173098      -1.32957035       3.58969831
H        3.05447043      -2.39570594       0.14951401
H        3.95448455      -6.03025082       5.43055475
H        4.45735987      -7.64871134       7.43216550
C       -0.00445707       0.01189536      -1.78238275
H       -0.66409135       0.67374010      -2.43557963
H        0.65740317      -0.63156657      -2.45157240
C       -0.90989263      -0.90692880      -0.91072765
C        0.90977584       0.90977584      -0.90977584
C       -0.00465871       1.77757030       0.00794375
H       -0.66225468       2.44313916      -0.64384735
H        0.64322798       2.43503045       0.67728295
C       -1.78241447       0.00034974      -0.00472694
H       -2.45427497      -0.65498947       0.64260836
H       -2.43311707       0.67328779      -0.65473579
C       -0.91132561       0.90220522       0.91563759
C       -0.01476271      -0.02253852       1.78660255
H       -0.67934791      -0.69751639       2.42135241
H        0.63392994       0.61504881       2.47327442
C        0.01484550      -1.77751727      -0.01636693
H        0.67870853      -2.42144646      -0.68295456
H       -0.62264859      -2.45592969       0.64226336
C        1.78714474       0.01002794       0.00389507
H        2.44202412       0.67113390       0.66197326
H        2.45385902      -0.65136977      -0.64189061
C        0.91606151      -0.90478549       0.90901405
