141
Properties=species:S:1:pos:R:3 pbc="F F F"
C        0.00000000       0.00000000       0.00000000
O        6.47572054       6.53768587      -4.00402791
C        5.75263165       5.91240606      -3.22313169
N        4.83839651       4.98906724      -3.69122174
N        4.01558174       4.31771742      -2.84447172
C        3.38349217       3.30329865      -3.33986087
C        2.49806404       2.48196601      -2.48857186
C        2.17227301       2.89529548      -1.19068922
C        1.35933517       2.09413757      -0.38670384
C        0.88172798       0.88172798      -0.88172798
C        1.20552858       0.46512859      -2.17409377
C        2.01406597       1.26838541      -2.98343174
C        5.79575675       6.10944648      -1.70135286
N        7.15781071       6.41861814      -1.24651206
C        7.37348099       6.73484032       0.10149511
C        6.55795506       6.22033801       1.12329949
C        6.82608910       6.47507827       2.47225447
C        7.93706086       7.23138826       2.82498519
Cl       8.26386925       7.54289554       4.48459726
C        8.78921105       7.72513732       1.84423982
C        8.51377660       7.46530466       0.49701883
H        4.82830798       4.80915723      -4.68941611
H        3.50439345       2.99432670      -4.39354583
H        2.54858328       3.83711760      -0.79771943
H        1.11045417       2.42118543       0.61985901
H        0.83827010      -0.48453202      -2.55549813
H        2.27019362       0.92926358      -3.98361341
H        5.46157439       5.19508273      -1.20557712
H        5.11208886       6.93111396      -1.45856915
H        7.64471305       7.04723994      -1.88965534
H        5.69962435       5.59526999       0.89530500
H        6.16880215       6.06746731       3.23599176
H        9.66495567       8.30221269       2.12625654
C        9.43168224       7.98831400      -0.48150581
C       10.20042822       8.42633431      -1.30102019
Br      11.44342544       9.13457612      -2.62610564
O       -6.67801897      -4.01626927      -6.32314607
C       -6.05568968      -3.24147016      -5.59100955
N       -5.05377989      -3.70425489      -4.76065071
N       -4.38326992      -2.86672105      -3.92777990
C       -3.30605556      -3.33517507      -3.38542106
C       -2.48256115      -2.48763376      -2.49840701
C       -2.94862287      -1.23766724      -2.07196759
C       -2.14691538      -0.43436143      -1.25889977
C       -0.88172798      -0.88172798      -0.88172798
C       -0.41260126      -2.12611262      -1.30603706
C       -1.21583072      -2.93512940      -2.11492300
C       -6.34118467      -1.73435748      -5.53101395
N       -6.75729207      -1.22227611      -6.84337273
C       -7.16208267       0.11428712      -6.95903064
C       -6.65827408       1.11722904      -6.11394854
C       -7.00501195       2.46142760      -6.28532854
C       -7.84577187       2.83050922      -7.32820128
Cl      -8.27028439       4.48420907      -7.53609222
C       -8.33344190       1.87181905      -8.20848571
C       -7.98128751       0.52924050      -8.03001541
H       -4.81712085      -4.68873916      -4.82102132
H       -2.94552243      -4.35972776      -3.58701579
H       -3.93224227      -0.88144658      -2.36973146
H       -2.51506516       0.53486402      -0.93157946
H        0.57762616      -2.46982026      -1.01704212
H       -0.83644836      -3.89685547      -2.44976678
H       -5.43800580      -1.20415095      -5.22007749
H       -7.13260284      -1.58083329      -4.78833584
H       -7.37654200      -1.87342793      -7.33163840
H       -5.97063241       0.87890592      -5.30786285
H       -6.60259492       3.20974235      -5.60742513
H       -8.97737800       2.16786283      -9.03139665
C       -8.50220867      -0.42526205      -8.97403132
C       -8.93848015      -1.22465794      -9.76464464
Br      -9.64389422      -2.51721347     -11.04299951
O       -5.41521203       4.37313527       7.22908701
C       -4.74858125       3.57258895       6.56699920
N       -4.44899636       3.82675150       5.24293763
N       -3.74313745       2.93929528       4.49533815
C       -3.29622139       3.37023525       3.36019505
C       -2.48021503       2.49478417       2.49360271
C       -2.34009118       1.13228051       2.78588600
C       -1.54111789       0.32343482       1.97562388
C       -0.88172798       0.88172798       0.88172798
C       -1.01719479       2.23964288       0.58791327
C       -1.82163945       3.05040532       1.39383835
C       -4.21697932       2.25084244       7.13873434
N       -3.87315724       2.38972757       8.56005610
C       -3.46965086       1.25722331       9.27995203
C       -2.81511325       0.17938734       8.66049299
C       -2.34393328      -0.91225123       9.39723085
C       -2.49685220      -0.93153403      10.77814577
Cl      -1.91646385      -2.27539852      11.68110220
C       -3.10465390       0.13425623      11.43119843
C       -3.57290151       1.22264051      10.68652041
H       -4.74962841       4.71680034       4.86045257
H       -3.47454957       4.40393292       3.01378349
H       -2.84696956       0.69386683       3.64258393
H       -1.43681127      -0.73344680       2.20841611
H       -0.49584257       2.67467919      -0.26128554
H       -1.91076419       4.10871194       1.16359449
H       -3.32077556       1.95067686       6.59078183
H       -5.00126008       1.49714283       7.00336907
H       -4.54991291       2.96679287       9.06490256
H       -2.64256206       0.16869797       7.58832931
H       -1.84927574      -1.73259128       8.88359323
H       -3.20730034       0.12131442      12.51229706
C       -4.18507888       2.30757312      11.40885004
C       -4.69777743       3.21620418      12.01380111
Br      -5.52676762       4.68538375      12.99195583
O        4.43561446      -7.26115768       5.32066217
C        3.63536996      -6.60344420       4.64935524
N        3.85428280      -5.26240773       4.40199496
N        2.96561637      -4.52079311       3.69136140
C        3.37231623      -3.35770381       3.29663165
C        2.49522067      -2.49311145       2.48026979
C        1.14868939      -2.82489085       2.28467746
C        0.33947295      -2.01496407       1.48573956
C        0.88172798      -0.88172798       0.88172798
C        2.22377610      -0.54841147       1.07256337
C        3.03458160      -1.35412830       1.87717321
C        2.35180103      -7.19979769       4.05495737
N        2.54983005      -8.60338000       3.66973086
C        1.45611408      -9.34587244       3.20483968
C        0.37993263      -8.74021743       2.53484352
C       -0.67018038      -9.49590876       2.00318452
C       -0.64775496     -10.88109585       2.11012304
Cl      -1.94062361     -11.80737791       1.45541323
C        0.41905827     -11.51912111       2.73192917
C        1.46574804     -10.75550569       3.26080869
H        4.72058356      -4.86140346       4.74489431
H        4.38732606      -2.98390045       3.52103947
H        0.72314915      -3.71211488       2.74815629
H       -0.70495723      -2.27853465       1.33820317
H        2.64666957       0.33170064       0.59426728
H        4.08101785      -1.09254339       2.00950938
H        2.06274983      -6.63196785       3.16751657
H        1.56871122      -7.11574597       4.81731478
H        3.12119358      -9.11167685       4.34873791
H        0.33864888      -7.66375624       2.39718422
H       -1.49080165      -8.99294275       1.49813660
H        0.43932513     -12.60291674       2.79866995
C        2.55388154     -11.46225319       3.88536732
C        3.46519334     -12.05415421       4.40843517
Br       4.93870745     -13.01120811       5.25419165
