154
Properties=species:S:1:pos:R:3 pbc="F F F"
O        7.38562456       7.44758989      -4.91393193
C        6.66253567       6.82231008      -4.13303572
N        5.74830053       5.89897126      -4.60112576
N        4.92548576       5.22762144      -3.75437575
C        4.29339619       4.21320268      -4.24976489
C        3.40796807       3.39187003      -3.39847589
C        3.08217703       3.80519950      -2.10059324
C        2.26923919       3.00404160      -1.29660787
C        1.79163201       1.79163201      -1.79163201
C        2.11543260       1.37503262      -3.08399779
C        2.92397000       2.17828943      -3.89333577
C        6.70566078       7.01935050      -2.61125689
N        8.06771473       7.32852217      -2.15641608
C        8.28338501       7.64474434      -0.80840892
C        7.46785908       7.13024203       0.21339546
C        7.73599312       7.38498229       1.56235045
C        8.84696489       8.14129229       1.91508117
Cl       9.17377328       8.45279957       3.57469324
C        9.69911507       8.63504135       0.93433579
C        9.42368062       8.37520869      -0.41288519
Br      10.63737979       9.06675688      -1.70673772
H        5.73821201       5.71906125      -5.59932013
H        4.41429747       3.90423073      -5.30344985
H        3.45848730       4.74702163      -1.70762346
H        2.02035820       3.33108945      -0.29004501
H        1.74817413       0.42537201      -3.46540216
H        3.18009764       1.83916761      -4.89351744
H        6.37147842       6.10498675      -2.11548115
H        6.02199288       7.84101799      -2.36847317
H        8.55461708       7.95714397      -2.79955937
H        6.60952837       6.50517401      -0.01459903
H        7.07870617       6.97737133       2.32608773
H       10.57485969       9.21211671       1.21635251
O       -5.38186890      -6.17873115      -8.18654634
C       -4.65823490      -5.39817902      -7.56146756
N       -4.87690726      -5.15116166      -6.22032865
N       -4.10720631      -4.27088543      -5.52939121
C       -4.21895193      -4.29675518      -4.24065666
C       -3.39242055      -3.40828970      -3.39760373
C       -2.62213863      -2.39097605      -3.97485509
C       -1.82222865      -1.57876731      -3.16889269
C       -1.79163201      -1.79163201      -1.79163201
C       -2.55640716      -2.80564835      -1.21240750
C       -3.36306495      -3.61617275      -2.01635749
C       -3.48784710      -4.64238688      -8.20603419
N       -2.84898410      -5.45055345      -9.25311543
C       -1.82649983      -4.88408714     -10.02595130
C       -0.98595791      -3.87807321      -9.52067453
C        0.08277739      -3.37296926     -10.26843309
C        0.34651951      -3.88797760     -11.53171792
Cl       1.66135814      -3.26459660     -12.44864115
C       -0.43915394      -4.91068404     -12.04998265
C       -1.50622985      -5.41049329     -11.29505136
Br      -2.53488641      -6.82114736     -12.05484062
H       -5.61473581      -5.67726007      -5.76459751
H       -4.90065306      -4.99645525      -3.72486974
H       -2.63736748      -2.22592603      -5.04983888
H       -1.22681568      -0.79094039      -3.62373659
H       -2.52514885      -2.97496460      -0.13883483
H       -3.94522549      -4.41055780      -1.55699940
H       -2.74183526      -4.40656379      -7.44354727
H       -3.89049293      -3.71390641      -8.62708470
H       -3.53255256      -5.96955828      -9.80920958
H       -1.13350657      -3.47114227      -8.52465258
H        0.70763029      -2.58875914      -9.84886092
H       -0.21880679      -5.32053612     -13.03128099
O       -7.47614587       7.35601009       4.91499043
C       -6.75874115       6.72846094       4.13067939
N       -5.79482669       5.85630546       4.59726540
N       -4.97847326       5.18386920       3.74514049
C       -4.29198499       4.21169363       4.25268514
C       -3.40771097       3.39153995       3.39906307
C       -3.14397987       3.76790631       2.07608359
C       -2.33115854       2.96706422       1.27166589
C       -1.79163201       1.79163201       1.79163201
C       -2.05345118       1.41186688       3.10914496
C       -2.86176452       2.21516031       3.91867036
C       -6.86342343       6.86736765       2.60547709
N       -8.25135583       7.11067409       2.19062306
C       -8.52656409       7.36887856       0.84109562
C       -7.72954468       6.84634189      -0.19118092
C       -8.05490515       7.04123801      -1.53751820
C       -9.20499504       7.74383351      -1.87565255
Cl      -9.60214261       7.98182716      -3.53209016
C      -10.03928761       8.24281716      -0.88228414
C       -9.70650977       8.04303177       0.46223296
Br     -10.89801871       8.73823798       1.77461770
H       -5.74246085       5.71394505       5.60018750
H       -4.36367724       3.93782050       5.32048031
H       -3.56868400       4.68050277       1.66394563
H       -2.13064302       3.26530197       0.24554767
H       -1.63790954       0.49069107       3.51034768
H       -3.06929792       1.90436968       4.93911508
H       -6.51353185       5.94778964       2.13062482
H       -6.21974304       7.70336417       2.30837684
H       -8.73792735       7.74489214       2.82850092
H       -6.84107240       6.26117912       0.02704988
H       -7.41066054       6.62935609      -2.31002686
H      -10.94530248       8.77742936      -1.15210795
O        5.12303405      -6.61099849       8.01311384
C        4.37666997      -5.84755994       7.39365156
N        4.73567695      -5.36064880       6.15207180
N        3.93736009      -4.49552402       5.47459885
C        4.22845086      -4.29847744       4.22943546
C        3.39425372      -3.40876240       3.39529787
C        2.39847646      -2.61340604       3.97608727
C        1.59742644      -1.80050415       3.17195806
C        1.79163201      -1.79163201       1.79163201
C        2.78176995      -2.58420836       1.20848470
C        3.58942199      -3.39421040       2.01196281
C        3.02255830      -5.37378507       7.93992480
N        2.38353077      -6.41986476       8.74925745
C        1.18668108      -6.13132478       9.41853241
C        0.27333609      -5.18289004       8.92847952
C       -0.95540613      -4.95667407       9.55735702
C       -1.30469653      -5.69921980      10.67865274
Cl      -2.81628582      -5.41850648      11.44965895
C       -0.44408789      -6.67362087      11.17028765
C        0.78317156      -6.89373929      10.53486365
Br       1.91024005      -8.25256956      11.24806478
H        5.60410804      -5.69990544       5.75257992
H        5.07818170      -4.80550039       3.73829596
H        2.23861395      -2.62259515       5.05192329
H        0.82628353      -1.18566628       3.62954285
H        2.92645654      -2.58162594       0.13086581
H        4.34928821      -4.01656060       1.54693388
H        2.36073465      -5.12375820       7.10745346
H        3.20893965      -4.47841686       8.54412753
H        3.05825616      -6.92213049       9.33093376
H        0.48956148      -4.60490872       8.03483121
H       -1.63415478      -4.20903424       9.15511031
H       -0.72896302      -7.26213241      12.03745451
C       -0.00445707       0.01189536      -1.78238275
H       -0.66409135       0.67374010      -2.43557963
H        0.65740317      -0.63156657      -2.45157240
C       -0.90989263      -0.90692880      -0.91072765
C        0.90977584       0.90977584      -0.90977584
C       -0.00465871       1.77757030       0.00794375
H       -0.66225468       2.44313916      -0.64384735
H        0.64322798       2.43503045       0.67728295
C       -1.78241447       0.00034974      -0.00472694
H       -2.45427497      -0.65498947       0.64260836
H       -2.43311707       0.67328779      -0.65473579
C       -0.91132561       0.90220522       0.91563759
C       -0.01476271      -0.02253852       1.78660255
H       -0.67934791      -0.69751639       2.42135241
H        0.63392994       0.61504881       2.47327442
C        0.01484550      -1.77751727      -0.01636693
H        0.67870853      -2.42144646      -0.68295456
H       -0.62264859      -2.45592969       0.64226336
C        1.78714474       0.01002794       0.00389507
H        2.44202412       0.67113390       0.66197326
H        2.45385902      -0.65136977      -0.64189061
C        0.91606151      -0.90478549       0.90901405
