161
Properties=species:S:1:pos:R:3 pbc="F F F"
C        0.00000000       0.00000000       0.00000000
C        2.43196813       5.34572912      -1.74889189
O        1.93596013       4.33391906      -0.88078322
C        1.86750278       3.05028746      -1.36155713
C        1.08266024       2.21844255      -0.54790404
C        0.88198576       0.88198576      -0.88198576
C        1.46727549       0.35035961      -2.02370673
C        2.26662261       1.16456915      -2.82970433
C        2.48744672       2.51252016      -2.50201665
O        3.23665268       3.32560686      -3.31084677
C        4.41205251       2.73233604      -3.86472556
C        5.30095773       3.77721572      -4.57288519
O        5.02932163       4.97950550      -4.60798024
N        6.44347561       3.28870617      -5.17625846
N        6.76754565       1.90419693      -5.15994648
C        7.99588006       1.68540977      -5.64519987
H        8.69892345       2.44475545      -5.97355579
C        8.49327717       0.30402774      -5.65045649
C        7.71384537      -0.74585923      -6.14469619
C        8.18888009      -2.06028723      -6.13263458
C        9.45405993      -2.34628531      -5.61020797
O        9.98419420      -3.61217637      -5.57213776
C        9.04009255      -4.66553780      -5.42149745
C       10.24788236      -1.28848639      -5.14174733
Br      11.98362343      -1.59661037      -4.42682083
C        9.77306427       0.02764992      -5.16434152
H        2.23175615       6.30969801      -1.27139071
H        1.90461550       5.34712406      -2.70843583
H        3.51614706       5.26501541      -1.86941063
H        0.62137326       2.63639017       0.34271804
H        1.30966288      -0.68651047      -2.30365388
H        2.69460847       0.72861833      -3.72782644
H        4.13090262       1.99450888      -4.62278070
H        5.00481190       2.27361833      -3.06449594
H        7.06138348       3.93994255      -5.63448242
H        6.72434477      -0.52792963      -6.54295396
H        7.54986792      -2.83107254      -6.54517196
H        9.59601843      -5.57991686      -5.19187104
H        8.49259403      -4.84082368      -6.35316697
H        8.35310582      -4.47451032      -4.58983934
H       10.37782458       0.84141495      -4.77501417
C       -2.59521285      -5.30861968      -1.62275662
O       -2.09188137      -4.28081488      -0.77796614
C       -1.94377513      -3.02475840      -1.31081384
C       -1.15804220      -2.19168924      -0.49927539
C       -0.88198576      -0.88198576      -0.88198576
C       -1.39180849      -0.37806706      -2.07146629
C       -2.19154479      -1.19255114      -2.87680016
C       -2.48795667      -2.51313666      -2.50089020
O       -3.23747709      -3.32882397      -3.30680524
C       -4.35912837      -2.71065749      -3.93932824
C       -5.26308145      -3.74695203      -4.64102516
O       -5.04547959      -4.96032205      -4.61100573
N       -6.35454548      -3.23704070      -5.31685406
N       -6.61531453      -1.84038203      -5.37599250
C       -7.80993610      -1.59049053      -5.92606307
H       -8.53195257      -2.33257500      -6.25270712
C       -8.24288368      -0.19035513      -6.01452260
C       -7.39533822       0.80069731      -6.51804144
C       -7.80979039       2.13382708      -6.58526413
C       -9.08220346       2.49852520      -6.13430432
O       -9.55500412       3.78681689      -6.17596837
C       -8.57118017       4.80364493      -6.02851696
C       -9.94334468       1.49902660      -5.65682521
Br     -11.69278583       1.91520804      -5.03625610
C       -9.52872599       0.16371939      -5.60004912
H       -2.46041578      -6.25756170      -1.09486739
H       -2.02699273      -5.37700395      -2.55617871
H       -3.66824817      -5.18614007      -1.79618486
H       -0.75578260      -2.58822317       0.42896038
H       -1.17480754       0.63701287      -2.38901162
H       -2.55941794      -0.77985065      -3.81178464
H       -4.01160229      -2.02130780      -4.71528211
H       -4.96472223      -2.19029730      -3.18790664
H       -6.98096645      -3.88090199      -5.77394002
H       -6.40036951       0.52167759      -6.86067719
H       -7.11873163       2.85622195      -7.00145767
H       -9.09419073       5.75102557      -5.86480746
H       -7.97598827       4.91198107      -6.94093011
H       -7.93070810       4.62100057      -5.15872731
H      -10.18655299      -0.60413007      -5.20357064
C       -3.58471616       1.09386504       4.84800795
O       -2.51341710       0.55265442       4.08459087
C       -2.16326189       1.19349771       2.92258776
C       -1.32983397       0.40745233       2.11172053
C       -0.88198576       0.88198576       0.88198576
C       -1.24721661       2.14875095       0.44537428
C       -2.06007472       2.94707119       1.25375018
C       -2.51276294       2.48763120       2.50158940
O       -3.34341272       3.25018243       3.27951116
C       -3.03889874       4.64499372       3.32522165
C       -3.88094785       5.37977843       4.39033235
O       -4.68356357       4.80445060       5.12879321
N       -3.68432999       6.74408978       4.48002047
N       -2.77455539       7.42888623       3.62824744
C       -2.61541672       8.70254446       4.00852852
H       -3.06854561       9.17290947       4.87577960
C       -1.66732174       9.52917410       3.25126557
C       -1.69218423       9.56638907       1.85410904
C       -0.77662652      10.34450480       1.14009612
C        0.19169492      11.09122225       1.81845526
O        1.11697957      11.88016579       1.18096938
C        1.52614292      11.42555710      -0.10336198
C        0.19729838      11.07701996       3.22142171
Br       1.47620829      12.07511077       4.21493141
C       -0.72709698      10.30453808       3.93342065
H       -3.84179008       0.35651997       5.61453483
H       -4.47946589       1.24532672       4.23538278
H       -3.27680787       2.00541051       5.36835471
H       -1.04831790      -0.58532110       2.45204859
H       -0.91601291       2.52733789      -0.51654451
H       -2.34776417       3.92491403       0.87837505
H       -3.27895230       5.10688505       2.36235485
H       -1.98119010       4.78261075       3.57912532
H       -4.20106973       7.25980058       5.17493815
H       -2.43844031       8.97833657       1.32259223
H       -0.85400378      10.34996770       0.05999586
H        2.40293374      12.01004434      -0.39913798
H        0.74691845      11.60334185      -0.85148608
H        1.81971456      10.37034845      -0.08219904
H       -0.70292213      10.27259101       5.01874056
C        2.68845720      -1.55599253       5.28213942
O        1.69127360      -1.06480617       4.39458263
C        1.76023184      -1.44223307       3.07688247
C        0.93443171      -0.65938321       2.25519190
C        0.88198576      -0.88198576       0.88198576
C        1.64129090      -1.89283386       0.30721708
C        2.45131528      -2.69080134       1.11877947
C        2.50855686      -2.48614021       2.50728646
O        3.33234954      -3.23887542       3.30188135
C        3.39419161      -4.63023467       2.98468782
C        4.16353980      -5.42831032       4.05920852
O        4.62463288      -4.91233708       5.07983741
N        4.31059869      -6.78034475       3.81749679
N        3.79932149      -7.39227768       2.64008989
C        3.89971320      -8.72583011       2.70094639
H        4.27353602      -9.30178503       3.54191364
C        3.36960281      -9.50385082       1.57430777
C        3.68519187      -9.17455124       0.25293924
C        3.16460095      -9.91127612      -0.81464963
C        2.30451966     -10.98720815      -0.57374523
O        1.76204825     -11.75581932      -1.57371197
C        1.51816255     -11.07856314      -2.80067350
C        2.01187488     -11.33585380       0.75341460
Br       0.85924609     -12.79320198       1.16138582
C        2.54267356     -10.60214741       1.82023474
H        2.58668546      -1.00445677       6.22170265
H        3.69679422      -1.36058059       4.90280058
H        2.52678790      -2.61348426       5.51030094
H        0.34419052       0.13425546       2.70511032
H        1.62022878      -2.07008461      -0.76350710
H        3.05063580      -3.46006670       0.64035074
H        3.93456051      -4.77044496       2.04318674
H        2.37877423      -5.03947678       2.92467516
H        4.79104409      -7.34195100       4.50281337
H        4.34655864      -8.33123069       0.06157978
H        3.45753258      -9.62292061      -1.81648584
H        0.89981827     -11.73207755      -3.42392321
H        2.45150570     -10.89652665      -3.34309504
H        0.96500602     -10.14625450      -2.64282568
H        2.29214650     -10.85606146       2.84604574
