190
Properties=species:S:1:pos:R:3 pbc="F F F"
C        3.34187216       6.25563315      -2.65879591
O        2.84586415       5.24382308      -1.79068724
C        2.77740680       3.96019149      -2.27146115
C        1.99256427       3.12834657      -1.45780806
C        1.79188978       1.79188978      -1.79188978
C        2.37717952       1.26026364      -2.93361076
C        3.17652663       2.07447318      -3.73960835
C        3.39735075       3.42242419      -3.41192067
O        4.14655670       4.23551089      -4.22075079
C        5.32195653       3.64224006      -4.77462958
C        6.21086175       4.68711974      -5.48278922
O        5.93922566       5.88940953      -5.51788427
N        7.35337963       4.19861020      -6.08616248
N        7.67744967       2.81410096      -6.06985050
C        8.90578408       2.59531380      -6.55510390
H        9.60882747       3.35465948      -6.88345981
C        9.40318119       1.21393177      -6.56036051
C        8.62374940       0.16404480      -7.05460022
C        9.09878412      -1.15038321      -7.04253860
C       10.36396395      -1.43638129      -6.52011199
O       10.89409823      -2.70227234      -6.48204179
C        9.94999657      -3.75563378      -6.33140148
C       11.15778638      -0.37858237      -6.05165135
C       10.68296829       0.93755394      -6.07424555
H        3.14166017       7.21960204      -2.18129474
H        2.81451952       6.25702809      -3.61833985
H        4.42605108       6.17491943      -2.77931465
H        1.53127728       3.54629419      -0.56718598
H        2.21956690       0.22339356      -3.21355791
H        3.60451249       1.63852236      -4.63773046
H        5.04080664       2.90441291      -5.53268472
H        5.91471593       3.18352235      -3.97439996
H        7.97128751       4.84984658      -6.54438645
H        7.63424880       0.38197440      -7.45285799
H        8.45977195      -1.92116851      -7.45507598
H       10.50592245      -4.67001283      -6.10177506
H        9.40249805      -3.93091966      -7.26307099
H        9.26300985      -3.56460629      -5.49974336
H       11.28772860       1.75131898      -5.68491820
C       12.47168453      -0.61182195      -5.51047582
C       13.57207423      -0.80716010      -5.05724131
Br      15.35131130      -1.12300536      -4.32439944
C       -5.27521234      -5.09905075      -1.88203813
O       -4.59836887      -4.00269222      -1.27931337
C       -3.63707092      -3.35652603      -2.01546249
C       -2.83408106      -2.51996745      -1.22467039
C       -1.79188978      -1.79188978      -1.79188978
C       -1.53963680      -1.87646744      -3.15494967
C       -2.34552745      -2.69072425      -3.95435646
C       -3.40729305      -3.42446982      -3.39993274
O       -4.17446201      -4.25597276      -4.17238361
C       -4.51553798      -3.75677106      -5.46651713
C       -5.55513857      -4.65513784      -6.17049431
O       -6.04793776      -5.65510029      -5.64348140
N       -5.91712836      -4.27333144      -7.44769251
N       -5.35009242      -3.13226878      -8.07903992
C       -5.97257586      -2.85281932      -9.23080660
H       -6.83132448      -3.37770581      -9.63791647
C       -5.52868290      -1.66998309      -9.97880749
C       -4.17356944      -1.43759952     -10.23122546
C       -3.75807090      -0.30151011     -10.93135850
C       -4.69830921       0.63105649     -11.38044194
O       -4.36061344       1.76449857     -12.07775281
C       -3.09263051       2.32394062     -11.75707438
C       -6.06028336       0.38239813     -11.15297014
C       -6.47349646      -0.76106576     -10.46020556
H       -5.84888860      -5.59834846      -1.09531989
H       -4.57131878      -5.83576539      -2.28280330
H       -5.99135912      -4.75504068      -2.63388537
H       -3.02926256      -2.45793746      -0.15755744
H       -0.72284962      -1.32440689      -3.60926186
H       -2.11266333      -2.75472396      -5.01337803
H       -3.62619869      -3.74717179      -6.10453379
H       -4.94737182      -2.75342181      -5.37184461
H       -6.60687124      -4.82222528      -7.93642401
H       -3.43821548      -2.15664024      -9.87422546
H       -2.69747194      -0.18192220     -11.11428528
H       -3.04300676       3.31788955     -12.21256747
H       -2.27927127       1.72783953     -12.18321765
H       -2.96820028       2.44554201     -10.67548865
H       -7.52634834      -0.93731794     -10.26029950
C       -7.07369870       1.30284195     -11.59948164
C       -7.92243405       2.07371364     -11.97343502
Br      -9.29476733       3.32014798     -12.57808601
C       -4.32569582       2.06644041       5.86416499
O       -3.26516005       1.53823119       5.07698323
C       -2.99571709       2.14001757       3.87332477
C       -2.16346785       1.35490783       3.06034321
C       -1.79188978       1.79188978       1.79188978
C       -2.23331018       3.02023379       1.31750994
C       -3.04570010       3.81837838       2.12652968
C       -3.42200717       3.39707516       3.41261327
O       -4.25184962       4.15735443       4.19361433
C       -4.00964797       5.56476426       4.16441394
C       -4.83705711       6.30995039       5.23376321
O       -5.57954486       5.73444635       6.03252824
N       -4.69922250       7.68421775       5.25471207
N       -3.85973780       8.36847648       4.33318685
C       -3.74247699       9.66390630       4.64981849
H       -4.17830797      10.15314952       5.51548926
C       -2.86709858      10.49570447       3.81467043
C       -2.95462598      10.46795220       2.41981624
C       -2.10761545      11.25188768       1.63143638
C       -1.14570662      12.07038046       2.23160757
O       -0.28614109      12.86904183       1.51868475
C        0.08687838      12.37455568       0.23808697
C       -1.07819702      12.12052370       3.63213465
C       -1.93437278      11.34173289       4.41866212
H       -4.51510712       1.35434893       6.67310090
H       -5.25232849       2.15054679       5.28701219
H       -4.03730848       3.01337471       6.32960198
H       -1.82231272       0.39195495       3.43048980
H       -1.96206596       3.36859799       0.32585442
H       -3.39386493       4.76456035       1.72234003
H       -4.31236526       5.97127578       3.19426323
H       -2.94924975       5.75989291       4.36349559
H       -5.20813407       8.20806786       5.94931860
H       -3.69574660       9.82421125       1.94912334
H       -2.23225646      11.20463315       0.55678981
H        0.92230713      12.98265720      -0.12266539
H       -0.73157939      12.48378947      -0.48071948
H        0.42897814      11.33524279       0.29188227
H       -1.86139039      11.36047116       5.50210422
C       -0.11370076      12.95115849       4.30547914
C        0.69406486      13.64681513       4.86940516
Br       2.00015354      14.77163308       5.78122583
C        5.87416173      -2.07334369       4.30879580
O        4.79125753      -1.34092237       3.74819456
C        3.74104680      -2.04867258       3.21934006
C        2.90415659      -1.24705264       2.42750967
C        1.79188978      -1.79188978       1.79188978
C        1.48932160      -3.13887891       1.94285340
C        2.30443493      -3.94123144       2.74494180
C        3.42489092      -3.40555353       3.40125116
O        4.25058964      -4.19669891       4.15552983
C        3.59753799      -5.17330621       4.96798197
C        4.58145804      -5.85949891       5.93981376
O        5.77417875      -5.55604226       6.01629844
N        4.04738201      -6.85049200       6.74027831
N        2.67823390      -7.22564327       6.65752396
C        2.34458435      -8.07201927       7.63959816
H        2.99491873      -8.41256123       8.43946680
C        0.94695722      -8.51539566       7.71512059
C        0.27277110      -8.98530311       6.58432020
C       -1.06228977      -9.39172621       6.66150306
C       -1.75007656      -9.32081536       7.87695585
O       -3.05897914      -9.70792095       8.02492587
C       -3.88213959      -9.52931966       6.87858420
C       -1.06435523      -8.87734714       9.01786346
C        0.27521752      -8.48046358       8.93908668
H        6.68448690      -1.36221156       4.49585849
H        6.25925783      -2.82193421       3.60869542
H        5.59821870      -2.50831557       5.27375089
H        3.14423258      -0.19427908       2.30624580
H        0.63263718      -3.58044783       1.44343335
H        2.05683340      -4.99554585       2.82838606
H        3.18159188      -5.96252554       4.33378685
H        2.81550343      -4.69092183       5.56621298
H        4.65155333      -7.31189178       7.40207542
H        0.80240906      -9.03234392       5.63432820
H       -1.52884361      -9.76439212       5.75813090
H       -4.92181570      -9.66858815       7.19091223
H       -3.66572174     -10.28437567       6.11599546
H       -3.78886515      -8.51726921       6.46974286
H        0.79588726      -8.11057753       9.81750099
C       -1.71861600      -8.79119975      10.29775465
C       -2.26655940      -8.71905130      11.36966353
Br      -3.15253752      -8.60239337      13.10284952
C       -0.00445707       0.01189536      -1.78238275
H       -0.66409135       0.67374010      -2.43557963
H        0.65740317      -0.63156657      -2.45157240
C       -0.90989263      -0.90692880      -0.91072765
C        0.90977584       0.90977584      -0.90977584
C       -0.00465871       1.77757030       0.00794375
H       -0.66225468       2.44313916      -0.64384735
H        0.64322798       2.43503045       0.67728295
C       -1.78241447       0.00034974      -0.00472694
H       -2.45427497      -0.65498947       0.64260836
H       -2.43311707       0.67328779      -0.65473579
C       -0.91132561       0.90220522       0.91563759
C       -0.01476271      -0.02253852       1.78660255
H       -0.67934791      -0.69751639       2.42135241
H        0.63392994       0.61504881       2.47327442
C        0.01484550      -1.77751727      -0.01636693
H        0.67870853      -2.42144646      -0.68295456
H       -0.62264859      -2.45592969       0.64226336
C        1.78714474       0.01002794       0.00389507
H        2.44202412       0.67113390       0.66197326
H        2.45385902      -0.65136977      -0.64189061
C        0.91606151      -0.90478549       0.90901405
