182
Properties=species:S:1:pos:R:3 pbc="F F F"
C        3.34187216       6.25563315      -2.65879591
O        2.84586415       5.24382308      -1.79068724
C        2.77740680       3.96019149      -2.27146115
C        1.99256427       3.12834657      -1.45780806
C        1.79188978       1.79188978      -1.79188978
C        2.37717952       1.26026364      -2.93361076
C        3.17652663       2.07447318      -3.73960835
C        3.39735075       3.42242419      -3.41192067
O        4.14655670       4.23551089      -4.22075079
C        5.32195653       3.64224006      -4.77462958
C        6.21086175       4.68711974      -5.48278922
O        5.93922566       5.88940953      -5.51788427
N        7.35337963       4.19861020      -6.08616248
N        7.67744967       2.81410096      -6.06985050
C        8.90578408       2.59531380      -6.55510390
H        9.60882747       3.35465948      -6.88345981
C        9.40318119       1.21393177      -6.56036051
C        8.62374940       0.16404480      -7.05460022
C        9.09878412      -1.15038321      -7.04253860
C       10.36396395      -1.43638129      -6.52011199
O       10.89409823      -2.70227234      -6.48204179
C        9.94999657      -3.75563378      -6.33140148
C       11.15778638      -0.37858237      -6.05165135
Br      12.89352746      -0.68670635      -5.33672485
C       10.68296829       0.93755394      -6.07424555
H        3.14166017       7.21960204      -2.18129474
H        2.81451952       6.25702809      -3.61833985
H        4.42605108       6.17491943      -2.77931465
H        1.53127728       3.54629419      -0.56718598
H        2.21956690       0.22339356      -3.21355791
H        3.60451249       1.63852236      -4.63773046
H        5.04080664       2.90441291      -5.53268472
H        5.91471593       3.18352235      -3.97439996
H        7.97128751       4.84984658      -6.54438645
H        7.63424880       0.38197440      -7.45285799
H        8.45977195      -1.92116851      -7.45507598
H       10.50592245      -4.67001283      -6.10177506
H        9.40249805      -3.93091966      -7.26307099
H        9.26300985      -3.56460629      -5.49974336
H       11.28772860       1.75131898      -5.68491820
C       -4.83337279      -5.50852091      -1.91440752
O       -4.21690446      -4.41025560      -1.25321441
C       -3.44944026      -3.55547707      -2.00414210
C       -2.65213652      -2.71801507      -1.20856731
C       -1.79188978      -1.79188978      -1.79188978
C       -1.71966484      -1.67733505      -3.17405402
C       -2.52366850      -2.49222964      -3.97471002
C       -3.40423088      -3.42506614      -3.40239859
O       -4.16441250      -4.25486685      -4.18353903
C       -4.73619340      -3.65544546      -5.34718732
C       -5.74692486      -4.59637153      -6.03747432
O       -6.03982251      -5.71008892      -5.59660802
N       -6.32289606      -4.11727642      -7.19797983
N       -5.98813596      -2.84217535      -7.73108981
C       -6.79089394      -2.51430419      -8.75100365
H       -7.62802407      -3.09885198      -9.12007071
C       -6.59815036      -1.20094843      -9.37837468
C       -5.32784338      -0.75730097      -9.75725006
C       -5.15089059       0.50047591     -10.34052484
C       -6.24850235       1.34306526     -10.54225756
O       -6.14735681       2.58728572     -11.11379659
C       -4.92372736       3.27200381     -10.87404071
C       -7.52700958       0.88546635     -10.18931213
Br      -9.06970504       1.96923409     -10.44307501
C       -7.70183670      -0.37836780      -9.61456329
H       -5.23035583      -6.17204614      -1.14015499
H       -4.10759103      -6.08893767      -2.49335877
H       -5.68140950      -5.17785623      -2.52101943
H       -2.70591454      -2.81149825      -0.12734467
H       -1.04458203      -0.96858147      -3.64335486
H       -2.43149431      -2.39651167      -5.05275934
H       -3.94983492      -3.44822741      -6.07984194
H       -5.26814534      -2.73903450      -5.06545840
H       -7.00208943      -4.69259507      -7.67083604
H       -4.46985647      -1.40683443      -9.59239028
H       -4.14720724       0.78469492     -10.63116709
H       -5.05616012       4.31077434     -11.19229891
H       -4.11060913       2.84783870     -11.47187894
H       -4.66836924       3.27897382      -9.80875149
H       -8.68879614      -0.71928650      -9.31588314
C       -5.61208849       1.94335100       4.70086173
O       -4.51606469       1.26433367       4.09997611
C       -3.60706121       2.01000060       3.39199763
C       -2.76959074       1.21293288       2.59619528
C       -1.79188978       1.79188978       1.79188978
C       -1.62534082       3.17054817       1.77516493
C       -2.44034073       3.97161288       2.57865456
C       -3.42510400       3.40317440       3.40341720
O       -4.25406201       4.18687114       4.16188522
C       -3.63501645       5.30625852       4.79755120
C       -4.58750364       5.99438068       5.79888639
O       -5.72638955       5.58495827       6.03517162
N       -4.08889232       7.11494587       6.43431413
N       -2.78398224       7.61199709       6.16542180
C       -2.44984334       8.58965448       7.01670396
H       -3.05147843       8.94996860       7.84549973
C       -1.10862747       9.17433883       6.89450718
C       -0.60485848       9.58170507       5.65583087
C        0.67868817      10.12384971       5.54577797
C        1.48663442      10.25475621       6.67957286
O        2.75340880      10.78297088       6.64430559
C        3.47405519      10.56190999       5.43790946
C        0.96955614       9.87350982       7.92690169
Br       2.00370108      10.03149610       9.51575094
C       -0.31965568       9.34018068       8.03493142
H       -6.31717603       1.18055017       5.04483075
H       -6.14407318       2.56905121       3.97676307
H       -5.29163197       2.50653208       5.58212111
H       -2.90364118       0.13469382       2.60642246
H       -0.87567615       3.63707693       1.14376529
H       -2.30274682       5.04797402       2.53004447
H       -3.37266470       6.05838954       4.04685003
H       -2.74965260       4.97185048       5.35113516
H       -4.67173366       7.58422084       7.10956604
H       -1.22758059       9.47188063       4.76961996
H        1.01018629      10.43947590       4.56438981
H        4.51791822      10.83644735       5.61915555
H        3.10203205      11.20379783       4.63288360
H        3.45236931       9.50691801       5.14359822
H       -0.70744497       9.01923043       8.99729037
C        5.01380753      -1.88845604       5.35403765
O        3.91957247      -1.29597893       4.66482308
C        3.31590929      -2.02334753       3.66980262
C        2.47967827      -1.23337155       2.86566908
C        1.79188978      -1.79188978       1.79188978
C        1.91689105      -3.14568747       1.50847539
C        2.73097961      -3.94489299       2.31473557
C        3.42427407      -3.39951582       3.40790571
O        4.25587015      -4.17038491       4.17656333
C        3.78116062      -5.48454729       4.47311827
C        4.67117233      -6.19219711       5.51740127
O        5.64516918      -5.65337002       6.04798024
N        4.31284646      -7.48708023       5.83822561
N        3.20228249      -8.13177214       5.22734650
C        2.93670364      -9.30534219       5.81415595
H        3.45043578      -9.72092277       6.67558821
C        1.78430469     -10.07073805       5.32243073
C        1.59166366     -10.29461543       3.95611532
C        0.48408190     -11.01174024       3.49511737
C       -0.45968264     -11.50707901       4.40029828
O       -1.56659870     -12.22327549       4.01719088
C       -2.10264979     -11.88462694       2.74378712
C       -0.25031770     -11.30790564       5.77326742
Br      -1.48354166     -11.96092206       7.06616556
C        0.86487541     -10.59790631       6.23198606
H        5.47893176      -1.10440293       5.95922226
H        5.77741910      -2.25319158       4.65927678
H        4.67135019      -2.66629373       6.04264125
H        2.38605533      -0.17334922       3.08535291
H        1.39664029      -3.59271920       0.66715887
H        2.82729211      -4.99583273       2.05764047
H        3.80943721      -6.10003499       3.56843208
H        2.76545393      -5.42541424       4.88177007
H        4.85677104      -7.97939181       6.52935768
H        2.31932331      -9.90169608       3.24806179
H        0.39519254     -11.17080997       2.42767691
H       -3.08330980     -12.36297848       2.65801600
H       -1.47624066     -12.27542156       1.93546848
H       -2.24832925     -10.80356292       2.64291325
H        1.01015704     -10.42028257       7.29352617
C       -0.00445707       0.01189536      -1.78238275
H       -0.66409135       0.67374010      -2.43557963
H        0.65740317      -0.63156657      -2.45157240
C       -0.90989263      -0.90692880      -0.91072765
C        0.90977584       0.90977584      -0.90977584
C       -0.00465871       1.77757030       0.00794375
H       -0.66225468       2.44313916      -0.64384735
H        0.64322798       2.43503045       0.67728295
C       -1.78241447       0.00034974      -0.00472694
H       -2.45427497      -0.65498947       0.64260836
H       -2.43311707       0.67328779      -0.65473579
C       -0.91132561       0.90220522       0.91563759
C       -0.01476271      -0.02253852       1.78660255
H       -0.67934791      -0.69751639       2.42135241
H        0.63392994       0.61504881       2.47327442
C        0.01484550      -1.77751727      -0.01636693
H        0.67870853      -2.42144646      -0.68295456
H       -0.62264859      -2.45592969       0.64226336
C        1.78714474       0.01002794       0.00389507
H        2.44202412       0.67113390       0.66197326
H        2.45385902      -0.65136977      -0.64189061
C        0.91606151      -0.90478549       0.90901405
