190
Properties=species:S:1:pos:R:3 pbc="F F F"
O       -3.69070121       3.60093521      -5.76472440
C       -2.51105322       3.80763729      -5.46724387
N       -1.82189845       2.88147946      -4.71901027
N       -0.51544372       3.03827315      -4.39666522
C       -0.06318266       2.26781221      -3.45749911
C        1.33542536       2.40352565      -2.98618731
C        2.20460890       3.20661947      -3.74439632
C        3.48599193       3.40000338      -3.28211548
O        4.43701291       4.16520946      -3.87870939
C        5.53288435       4.00705282      -2.95375760
O        5.21871410       3.14111391      -1.84152317
C        3.92837947       2.81765838      -2.12139737
C        3.11424408       2.00613779      -1.35997558
C        1.79722109       1.79722109      -1.79722109
C       -1.77647858       5.06022579      -5.93112409
C       -1.26384178       5.95724889      -4.81168382
C        0.12721810       6.13156736      -4.71857693
C        0.68941147       6.83816895      -3.66551022
C       -0.13379937       7.40865184      -2.69659511
C       -1.54609797       7.31111857      -2.77773353
C       -2.41908981       7.90517223      -1.83245376
C       -3.80578162       7.81021728      -1.94323137
C       -4.36038322       7.11827382      -3.00501341
C       -3.52829805       6.51495744      -3.94778751
C       -2.11800221       6.58275899      -3.86065422
H       -2.35379978       2.09138068      -4.37002114
H       -0.71607867       1.52554112      -2.96995307
H        1.88677289       3.67639822      -4.66819610
H        5.80838894       4.99410105      -2.56474259
H        6.38915375       3.58846004      -3.49437677
H        3.49282095       1.56078704      -0.44583584
H       -2.44791222       5.64663173      -6.57026068
H       -0.95693230       4.73624836      -6.58528480
H        0.78694506       5.67733082      -5.45472540
H        1.77135313       6.92402143      -3.60165021
H       -2.02804275       8.46503869      -0.98635133
H       -4.44541061       8.28340545      -1.20314271
H       -5.43961724       7.04406794      -3.10847985
H       -4.01529908       5.99494442      -4.76984491
C        0.54162368       8.09361559      -1.62504094
C        1.10729049       8.66727274      -0.72761432
Br       2.02192588       9.59482783       0.72344862
O        3.49361320      -2.91345195      -6.25511965
C        2.35618079      -3.22670432      -5.89330440
N        1.66213029      -2.40764415      -5.03307742
N        0.39694340      -2.68232094      -4.63411710
C       -0.03661045      -2.01379213      -3.61172609
C       -1.38392460      -2.28454869      -3.05666502
C       -2.24945473      -3.09561171      -3.81055825
C       -3.47684369      -3.41446304      -3.27680406
O       -4.41445934      -4.20499188      -3.86148053
C       -5.44727897      -4.19221071      -2.85420510
O       -5.11209567      -3.38397218      -1.70528334
C       -3.87127027      -2.94759622      -2.04856873
C       -3.06084935      -2.13243716      -1.28707094
C       -1.79722109      -1.79722109      -1.79722109
C        1.67722781      -4.49526318      -6.39683593
C        1.31159717      -5.50256109      -5.31412701
C       -0.05349294      -5.78515883      -5.13871062
C       -0.48642579      -6.60210418      -4.10456067
C        0.44339327      -7.17549017      -3.23935067
C        1.83577834      -6.96853955      -3.40999291
C        2.81499904      -7.56007291      -2.57346232
C        4.17989576      -7.35554091      -2.77202189
C        4.60563978      -6.55314032      -3.81540347
C        3.66666497      -5.94954183      -4.65157004
C        2.27467066      -6.12717686      -4.47290480
H        2.16276252      -1.60628502      -4.66407955
H        0.59792379      -1.26060635      -3.11673297
H       -1.96918214      -3.47598137      -4.78620370
H       -5.62475850      -5.22132431      -2.52114976
H       -6.36790135      -3.80183528      -3.30225392
H       -3.40058636      -1.78019377      -0.31866371
H        2.33834269      -4.98511818      -7.12220469
H        0.79125967      -4.18849875      -6.96736179
H       -0.79547276      -5.33135530      -5.79217324
H       -1.55222066      -6.77183984      -3.97296427
H        2.52695781      -8.20415587      -1.74614921
H        4.90347461      -7.82995502      -2.11465715
H        5.66661580      -6.39246810      -3.98707825
H        4.05468725      -5.33967363      -5.46450387
C       -0.10231330      -7.98054456      -2.17742235
C       -0.55934255      -8.65477762      -1.28805738
Br      -1.29832019      -9.74495545       0.14997055
O       -6.23729687       2.94048195      -3.50282042
C       -6.01526358       3.04174120      -2.29317684
N       -4.73983311       2.85237807      -1.81361991
N       -4.43167369       2.98934636      -0.50152539
C       -3.28846658       2.50404707      -0.13038498
C       -2.88461018       2.54548683       1.29504131
C       -3.65478185       3.33186199       2.16898085
C       -3.33592087       3.32480657       3.50738335
O       -3.99341455       4.00490093       4.48261628
C       -3.24088833       3.60576744       5.64703901
O       -2.14596433       2.71563599       5.33975087
C       -2.28510652       2.58886334       3.99346537
C       -1.49214821       1.82141725       3.16679199
C       -1.79722109       1.79722109       1.79722109
C       -7.11853339       3.40073778      -1.30439987
C       -7.39356384       2.34888998      -0.23736289
C       -7.16140424       2.71754440       1.09841375
C       -7.27640307       1.79169224       2.12499532
C       -7.65323594       0.48139770       1.83681394
C       -7.95553199       0.07478108       0.51244106
C       -8.37470507      -1.23808407       0.18191518
C       -8.68335955      -1.60958586      -1.12610665
C       -8.58270215      -0.67693847      -2.14285968
C       -8.16476699       0.62143204      -1.85175213
C       -7.83413078       1.02954605      -0.53826583
H       -4.04130043       2.55079099      -2.48448937
H       -2.61433538       2.02254186      -0.85746171
H       -4.48801476       3.92821431       1.81513813
H       -3.91828963       3.10242387       6.34651908
H       -2.83908739       4.50427302       6.12863014
H       -0.66878815       1.24919552       3.58146017
H       -8.04523728       3.58524819      -1.86150529
H       -6.85167372       4.36395111      -0.85102397
H       -6.84764931       3.73062171       1.34073028
H       -7.05421324       2.09882178       3.14398975
H       -8.47553997      -2.00162912       0.94943643
H       -9.00759676      -2.62386795      -1.34259126
H       -8.82880965      -0.95049524      -3.16538385
H       -8.11567069       1.31891760      -2.68509803
C       -7.71325432      -0.41509077       2.96211667
C       -7.76351971      -1.16589986       3.90455770
Br      -7.84479460      -2.37989465       5.42840514
O        5.30612726      -4.15915157      -3.79032043
C        5.24024308      -4.08394854      -2.56036369
N        4.07378217      -3.66686787      -1.96205877
N        3.93286712      -3.60282025      -0.61619272
C        2.91706323      -2.92564482      -0.18057938
C        2.70887089      -2.74108240       1.27518502
C        3.49122423      -3.51478711       2.14961335
C        3.36057793      -3.30449685       3.50303601
O        4.05860098      -3.94624073       4.47609004
C        3.52465088      -3.31214668       5.65689721
O        2.51241306      -2.32448930       5.36444883
C        2.48123508      -2.37965457       4.00654558
C        1.68064033      -1.61581632       3.18390080
C        1.79722109      -1.79722109       1.79722109
C        6.41689221      -4.46893621      -1.67095712
C        6.95827151      -3.34436655      -0.79754714
C        6.86763020      -3.51568387       0.59404833
C        7.23106058      -2.49808837       1.46394168
C        7.71906210      -1.29517448       0.95721099
C        7.88476901      -1.09470224      -0.43671713
C        8.40895663       0.09991799      -0.99050245
C        8.57894452       0.26694524      -2.36433225
C        8.23014351      -0.75810966      -3.22534915
C        7.70354263      -1.94335469      -2.71245042
C        7.50830400      -2.14274487      -1.32563787
H        3.33156962      -3.35541086      -2.57937844
H        2.21270542      -2.44728265      -0.88057254
H        4.19125962      -4.25693770       1.78316989
H        4.34618089      -2.82568804       6.19536364
H        3.08762664      -4.08356686       6.30079705
H        0.99570614      -0.89147062       3.61226707
H        7.23042180      -4.84306645      -2.30450807
H        6.10100509      -5.32572622      -1.06213045
H        6.47094731      -4.44035911       1.00769488
H        7.11447732      -2.64811697       2.53443048
H        8.70381108       0.92885390      -0.35160991
H        8.98959498       1.19446663      -2.75399080
H        8.36575602      -0.64477474      -4.29760021
H        7.45851091      -2.72223028      -3.43125094
C        8.03834324      -0.28717735       1.93475963
C        8.30574119       0.55702025       2.75345661
Br       8.73810106       1.92201637       4.07722039
C       -0.00445707       0.01189536      -1.78238275
H       -0.66409135       0.67374010      -2.43557963
H        0.65740317      -0.63156657      -2.45157240
C       -0.90989263      -0.90692880      -0.91072765
C        0.90977584       0.90977584      -0.90977584
C       -0.00465871       1.77757030       0.00794375
H       -0.66225468       2.44313916      -0.64384735
H        0.64322798       2.43503045       0.67728295
C       -1.78241447       0.00034974      -0.00472694
H       -2.45427497      -0.65498947       0.64260836
H       -2.43311707       0.67328779      -0.65473579
C       -0.91132561       0.90220522       0.91563759
C       -0.01476271      -0.02253852       1.78660255
H       -0.67934791      -0.69751639       2.42135241
H        0.63392994       0.61504881       2.47327442
C        0.01484550      -1.77751727      -0.01636693
H        0.67870853      -2.42144646      -0.68295456
H       -0.62264859      -2.45592969       0.64226336
C        1.78714474       0.01002794       0.00389507
H        2.44202412       0.67113390       0.66197326
H        2.45385902      -0.65136977      -0.64189061
C        0.91606151      -0.90478549       0.90901405
