130
Properties=species:S:1:pos:R:3 pbc="F F F"
C        1.78178161       1.78178161      -1.78178161
C        1.94458424       1.58335251      -3.12753226
C        2.81626364       2.56511441      -3.69067633
C        3.29155723       3.46724919      -2.74966356
S        2.64546520       3.10971708      -1.19131224
C        4.16611195       4.63289656      -2.88836108
O        4.14479416       5.57678449      -2.09790026
C        5.05120589       4.63373749      -4.04081344
O        5.43046826       3.45501465      -4.63580848
C        6.27942201       3.76291107      -5.65330858
C        6.88087773       2.83923745      -6.50589055
C        7.72104444       3.35857439      -7.49716272
C        7.93137104       4.73524860      -7.60781375
C        7.31761268       5.64310263      -6.73504699
C        6.47037395       5.13684066      -5.73066106
C        5.69032685       5.68322517      -4.67902768
N        5.58341634       6.99103881      -4.36660856
H        1.46640982       0.79123980      -3.69073273
H        3.06399734       2.60429747      -4.74518595
H        6.70473143       1.77515788      -6.40192722
H        8.21117778       2.67220360      -8.18489249
H        7.48393001       6.71140501      -6.82646367
H        5.15849163       7.27310143      -3.48078045
H        6.22426364       7.68565784      -4.73827664
C        8.79932908       5.23562379      -8.64216066
C        9.52624393       5.65468800      -9.50842619
Br      10.70160377       6.33227940     -10.90910429
C       -1.78178161      -1.78178161      -1.78178161
C       -2.88712834      -2.44727126      -1.32106941
C       -3.51849906      -3.18385297      -2.36970234
C       -2.86334690      -3.05871518      -3.58640789
S       -1.49386653      -2.02245389      -3.43017410
C       -3.17470479      -3.60388794      -4.90877685
O       -2.79485800      -3.07218774      -5.95243317
C       -3.99335156      -4.80429712      -4.92810814
O       -4.02494748      -5.65021297      -3.84613094
C       -4.83771830      -6.69382732      -4.16409604
C       -5.13491221      -7.76600374      -3.32508979
C       -5.99982900      -8.73941306      -3.83753949
C       -6.52626426      -8.62191944      -5.12624968
C       -6.20842468      -7.53557965      -5.95175797
C       -5.33799480      -6.54793143      -5.45194944
C       -4.77454473      -5.33997379      -5.93806117
N       -4.97465009      -4.80597254      -7.16044107
H       -3.24011037      -2.41060238      -0.29766959
H       -4.42221805      -3.76491927      -2.22634344
H       -4.71477335      -7.83813681      -2.32890638
H       -6.25874996      -9.59401541      -3.21550850
H       -6.62117310      -7.44913997      -6.95148562
H       -4.37965661      -4.04288793      -7.48982897
H       -5.39112380      -5.33957745      -7.91749686
C       -7.41649532      -9.64019127      -5.62042692
C       -8.16206384     -10.49299393      -6.03430036
Br      -9.36758507     -11.87190369      -6.70349871
C       -1.78178161       1.78178161       1.78178161
C       -2.75847976       2.60705284       1.28993640
C       -3.42531351       3.30119401       2.34554686
C       -2.92350841       2.98502771       3.59993385
S       -1.65444020       1.82506448       3.46698984
C       -3.32288026       3.42760072       4.93688860
O       -3.11455307       2.75673085       5.94819498
C       -4.01588171       4.70289463       5.00698048
O       -3.84448708       5.65003024       4.02677407
C       -4.58002114       6.74006128       4.37555923
C       -4.67562896       7.91612878       3.63424799
C       -5.49106251       8.92321759       4.16250144
C       -6.16500943       8.73738729       5.37203667
C       -6.04890039       7.54637793       6.10048397
C       -5.23081289       6.52335004       5.58371275
C       -4.84651513       5.21863825       5.98742632
N       -5.23163775       4.59156804       7.11785792
H       -2.99869836       2.71084696       0.23883702
H       -4.24584297       3.98940551       2.17823228
H       -4.14345678       8.03984103       2.69851871
H       -5.59419840       9.85842902       3.61564646
H       -6.57556852       7.40735328       7.03887689
H       -4.75489855       3.73887487       7.41860009
H       -5.67396514       5.09018794       7.88404503
C       -6.99903139       9.79343604       5.88464609
C       -7.69752478      10.67787686       6.31395648
Br      -8.82692952      12.10794286       7.00811507
C        1.78178161      -1.78178161       1.78178161
C        1.58021199      -1.94869548       3.12656154
C        2.55149724      -2.83408979       3.68646734
C        3.46141459      -3.29919527       2.74786012
S        3.09919416      -2.65924070       1.18805966
C        4.58175261      -4.23306422       2.87255275
O        5.00773516      -4.88973364       1.92201011
C        5.15328581      -4.37106791       4.20140309
O        5.03626521      -3.36046147       5.12456471
C        5.69226686      -3.75371251       6.24966230
C        5.79911595      -3.00611636       7.42077342
C        6.51360964      -3.59080440       8.47236751
C        7.08186103      -4.85943306       8.33313930
C        6.96343067      -5.58917819       7.14315344
C        6.24899822      -5.01445434       6.07442311
C        5.91082102      -5.39238232       4.74937636
N        6.25667429      -6.54476907       4.13962035
H        0.78244286      -1.47792584       3.68801364
H        2.56161968      -3.11986661       4.73199447
H        5.35129778      -2.02322551       7.50729324
H        6.62134456      -3.04137813       9.40555118
H        7.40606581      -6.57455321       7.04117967
H        6.13683549      -6.64597139       3.12956663
H        6.97224550      -7.15818798       4.51776464
C        7.80731468      -5.43274206       9.43705678
C        8.41488211      -5.91288835      10.36158766
Br       9.39726726      -6.68924430      11.85647591
C       -0.00445707       0.01189536      -1.78238275
H       -0.66409135       0.67374010      -2.43557963
H        0.65740317      -0.63156657      -2.45157240
C       -0.90989263      -0.90692880      -0.91072765
C        0.90977584       0.90977584      -0.90977584
C       -0.00465871       1.77757030       0.00794375
H       -0.66225468       2.44313916      -0.64384735
H        0.64322798       2.43503045       0.67728295
C       -1.78241447       0.00034974      -0.00472694
H       -2.45427497      -0.65498947       0.64260836
H       -2.43311707       0.67328779      -0.65473579
C       -0.91132561       0.90220522       0.91563759
C       -0.01476271      -0.02253852       1.78660255
H       -0.67934791      -0.69751639       2.42135241
H        0.63392994       0.61504881       2.47327442
C        0.01484550      -1.77751727      -0.01636693
H        0.67870853      -2.42144646      -0.68295456
H       -0.62264859      -2.45592969       0.64226336
C        1.78714474       0.01002794       0.00389507
H        2.44202412       0.67113390       0.66197326
H        2.45385902      -0.65136977      -0.64189061
C        0.91606151      -0.90478549       0.90901405
