177
Properties=species:S:1:pos:R:3 pbc="F F F"
C        0.00000000       0.00000000       0.00000000
O        7.09893244       5.24258413      -3.72888676
C        6.92933389       6.32957082      -4.28143155
C        5.55632718       6.89567287      -4.60640446
C        4.41533667       5.98978292      -4.14678403
C        4.29291321       4.71897396      -4.99018619
C        3.14934417       3.83945555      -4.51776055
O        2.17184249       3.65101343      -5.23398576
N        3.35974091       3.32548958      -3.25116546
C        2.49627844       2.50063188      -2.50207303
C        1.30059239       1.97289455      -2.99613165
C        0.49526851       1.16128521      -2.18887008
C        0.88140920       0.88140920      -0.88140920
C        2.06863330       1.40126011      -0.37436444
C        2.87499777       2.20457602      -1.18652341
N        8.00662443       7.11328608      -4.62442451
N        7.85788846       8.36708046      -5.13107063
C        8.94316930       9.07213711      -5.16988455
C        8.93948350      10.46964236      -5.64296030
C        7.84836543      10.98457002      -6.35127839
C        7.84792861      12.32310094      -6.75137395
C        8.93233033      13.14072809      -6.43137573
O        8.92426163      14.45485282      -6.80539058
C       10.02256282      12.62216967      -5.72536324
C       10.03252597      11.28115374      -5.33549909
H        5.48681824       7.07704021      -5.68454304
H        5.46017623       7.85684293      -4.08718159
H        3.47272008       6.54762516      -4.21201300
H        4.54987703       5.74244799      -3.08703728
H        5.20972874       4.12081403      -4.96891792
H        4.10996055       4.98351165      -6.03848613
H        4.22873936       3.58667517      -2.79665032
H        0.96866393       2.16422461      -4.01205545
H       -0.42751557       0.75637281      -2.59606471
H        2.37568753       1.19033154       0.64642317
H        3.79683929       2.60332734      -0.77003523
H        8.92417658       6.75576549      -4.38011966
H        9.91109392       8.67148589      -4.81596157
H        6.99708806      10.35081955      -6.59264920
H        6.99450176      12.70876874      -7.30187312
H        8.09072651      14.65941775      -7.25962322
H       10.87506121      10.88517065      -4.77480246
C       11.14821037      13.44576913      -5.36731084
C       12.09094020      14.13553367      -5.06744196
Br      13.61525460      15.25082460      -4.58257934
O       -3.80602120      -7.15463782      -5.10974430
C       -4.30878780      -7.00769349      -6.22385497
C       -4.55603361      -5.64705101      -6.85531987
C       -4.08624676      -4.48914980      -5.97650705
C       -4.97260166      -4.28307833      -4.74639338
C       -4.48890473      -3.12416058      -3.89349496
O       -5.17193512      -2.11286594      -3.77204062
N       -3.25266113      -3.36256496      -3.32116986
C       -2.50189543      -2.49622944      -2.50085848
C       -2.96745442      -1.26202649      -2.04013769
C       -2.16043922      -0.45652447      -1.22846012
C       -0.88140920      -0.88140920      -0.88140920
C       -0.40284886      -2.10734854      -1.33406045
C       -1.21511681      -2.91336588      -2.13761451
N       -4.66429378      -8.10158863      -6.97845261
N       -5.11561552      -7.98397003      -8.25645401
C       -5.17078474      -9.09445145      -8.91995477
C       -5.58886694      -9.12874459     -10.33447463
C       -6.23219444      -8.03264757     -10.91937182
C       -6.57982457      -8.07063477     -12.27194416
C       -6.27234834      -9.19866445     -13.03342136
O       -6.59457601      -9.22905840     -14.36087062
C       -5.63142774     -10.29364176     -12.44502623
C       -5.29449296     -10.26466981     -11.09001603
H       -5.62266673      -5.54321426      -7.08252050
H       -3.99653598      -5.60986677      -7.79779800
H       -4.09180943      -3.56794887      -6.57259994
H       -3.04315011      -4.65454730      -5.68166489
H       -5.01145277      -5.17519258      -4.11281535
H       -6.00165339      -4.07048022      -5.05982472
H       -2.82374538      -4.25832337      -3.52999610
H       -3.96101444      -0.89899009      -2.28493947
H       -2.54550654       0.49689254      -0.87630795
H        0.59581048      -2.44494849      -1.07045789
H       -0.82097102      -3.86595345      -2.48327739
H       -4.47116966      -9.01276600      -6.57612607
H       -4.87191247     -10.05842941      -8.46819951
H       -6.46343685      -7.14782851     -10.32929145
H       -7.08015787      -7.21276155     -12.71222421
H       -7.00660596      -8.38747844     -14.61568308
H       -4.78393880     -11.11164776     -10.63944776
C       -5.28738686     -11.46456673     -13.20933676
C       -4.99925261     -12.44521639     -13.84944683
Br      -4.53336392     -14.03084395     -14.88445067
O       -6.76513807       3.48578801       5.81947724
C       -7.32419668       4.56900576       5.64713382
C       -6.88744814       5.57584513       4.59511123
C       -5.70665028       5.08723346       3.75801987
C       -4.39409554       5.06387616       4.54410166
C       -3.23616840       4.58099368       3.68939819
O       -2.31631081       5.33920044       3.40133043
N       -3.36854161       3.25757492       3.31027941
C       -2.49774118       2.50313832       2.49810385
C       -1.26831263       2.97262266       2.02868332
C       -0.45880407       2.16231343       1.22430630
C       -0.88140920       0.88140920       0.88140920
C       -2.10427495       0.40032186       1.33966103
C       -2.90643839       1.20942126       2.15023756
N       -8.41361720       4.92083285       6.40988498
N       -9.12673786       6.05515962       6.17414207
C      -10.25850266       6.12782729       6.79886102
C      -11.17324276       7.26978248       6.60906092
C      -10.73081893       8.45053741       6.00285749
C      -11.62577568       9.50273820       5.79388961
C      -12.95888107       9.36386811       6.18168496
O      -13.83931932      10.38497275       5.96021297
C      -13.39728983       8.18313961       6.78966630
C      -12.50244132       7.13431113       7.01242635
H       -6.63985738       6.52428869       5.08425542
H       -7.73674401       5.74518073       3.92227600
H       -5.58717479       5.75194699       2.89323646
H       -5.93407409       4.09513269       3.35015551
H       -4.45416840       4.41865168       5.42664061
H       -4.15654714       6.07241464       4.90299655
H       -4.19920998       2.77514440       3.63771047
H       -0.90216793       3.96362715       2.27914891
H        0.49655498       2.54578407       0.87569287
H       -2.44313012      -0.59730548       1.07377125
H       -3.85955449       0.81571002       2.49493736
H       -8.73014651       4.23880971       7.09110551
H      -10.60544557       5.32165020       7.47144562
H       -9.69367562       8.55654410       5.69033709
H      -11.26778996      10.41406168       5.32329197
H      -13.38488376      11.11529941       5.50958431
H      -12.84975259       6.21294836       7.47233337
C      -14.77022008       8.00518047       7.18588980
C      -15.92004917       7.85613968       7.51772698
Br     -17.77922555       7.61515335       8.05427964
O        3.49313835      -5.79451009       6.78275489
C        4.58186422      -5.62620832       7.33226372
C        5.59327924      -4.58523601       6.87988925
C        5.10202491      -3.75340625       5.69647245
C        5.06270156      -4.54920349       4.39016830
C        4.57748397      -3.69963316       3.22944314
O        5.33080966      -3.42433271       2.30169932
N        3.25802251      -3.30943609       3.36893734
C        2.50313527      -2.49814501       2.49770308
C        2.96676640      -2.04164345       1.26120874
C        2.15641837      -1.23726003       0.45174541
C        0.88140920      -0.88140920       0.88140920
C        0.40621022      -1.32670387       2.11134376
C        1.21524551      -2.13733283       2.91351886
N        4.93620758      -6.38335044       8.42477701
N        6.07769512      -6.15087621       9.12746823
C        6.15426350      -6.76754342      10.26338404
C        7.30456950      -6.57954082      11.16797584
C        8.48647084      -5.98573189      10.71201111
C        9.54702182      -5.77802758      11.59735410
C        9.41539498      -6.15464622      12.93439295
O       10.44483551      -5.93431120      13.80535833
C        8.23347597      -6.75026357      13.38635620
C        7.17619349      -6.97178416      12.50120115
H        6.53607490      -5.08346350       6.62886309
H        5.77418021      -3.90730056       7.72271998
H        5.77233685      -2.89464935       5.56537204
H        4.11480522      -3.33627350       5.92828358
H        4.41128985      -5.42631343       4.46185741
H        6.06665158      -4.91757170       4.14773506
H        2.77947854      -3.62687714       4.20570917
H        3.95302331      -2.30242861       0.88949208
H        2.53521717      -0.89882695      -0.50912217
H       -0.58676057      -1.05065152       2.45570493
H        0.82621922      -2.47179135       3.87219130
H        4.25148058      -7.05693083       8.75165032
H        5.34568717      -7.43131078      10.62154344
H        8.58692439      -5.68189197       9.67174045
H       10.45912469      -5.31712142      11.22889751
H       11.17506489      -5.49272218      13.34198042
H        6.25405141      -7.42200456      12.85897835
C        8.06300238      -7.13471005      14.76357791
C        7.92023075      -7.45668398      15.91700110
Br       7.68938110      -7.97728860      17.78198884
