125
Properties=species:S:1:pos:R:3 pbc="F F F"
C        0.00000000       0.00000000       0.00000000
O        4.00793899       7.76039948      -3.48524276
C        3.90648601       6.53572202      -3.54098168
N        2.98303506       5.88717631      -2.74902703
N        2.87404210       4.52767417      -2.71846702
C        1.96555880       4.06439494      -1.91873386
C        1.77645582       2.65163639      -1.76432554
C        2.38642895       1.55884960      -2.35065048
C        1.80073150       0.40782944      -1.76783445
C        0.86757585       0.86757585      -0.86757585
O        0.84177371       2.22733756      -0.86328269
C        4.74530862       5.63640207      -4.45133701
O        5.57266052       6.40007337      -5.32227302
C        6.11072478       5.74520444      -6.39890070
C        6.21659632       4.35284363      -6.49520568
C        6.76796261       3.76139747      -7.63624703
C        7.22778297       4.56020115      -8.68076233
Cl       7.89644368       3.82469826     -10.08433534
C        7.15134912       5.94599123      -8.59394755
C        6.59859718       6.53532043      -7.45319355
H        2.41721186       6.47741032      -2.14496271
H        1.31329216       4.72750475      -1.32044476
H        3.16641986       1.59632127      -3.09928404
H        2.03633538      -0.62655775      -1.97594156
H        4.04540086       5.02558120      -5.03364156
H        5.37658019       5.01020433      -3.81213182
H        5.88522964       3.69790062      -5.69544278
H        6.83713823       2.67847599      -7.70149502
H        7.51851881       6.56261472      -9.40930301
C        6.53634370       7.97322167      -7.40666894
C        6.48420642       9.17746396      -7.36770458
Br       6.39990485      11.12462188      -7.30470250
O       -2.39433684      -6.53296661      -6.32627777
C       -2.77640057      -5.67545353      -5.53133561
N       -1.85445734      -4.88065114      -4.88412992
N       -2.21567950      -3.96196276      -3.94254103
C       -1.23616125      -3.29639832      -3.41612804
C       -1.47752316      -2.32894067      -2.38595392
C       -2.63578681      -1.87967076      -1.78047146
C       -2.23969163      -0.93873958      -0.79796418
C       -0.86757585      -0.86757585      -0.86757585
O       -0.39721849      -1.70294540      -1.83223007
C       -4.24236659      -5.40127899      -5.18940211
O       -5.12157898      -6.17426245      -5.99916547
C       -6.43519832      -5.78604471      -6.03358690
C       -7.03142852      -4.95617480      -5.07704231
C       -8.37775955      -4.59571034      -5.19213723
C       -9.13738251      -5.07396738      -6.25739656
Cl     -10.79013110      -4.61882441      -6.39652178
C       -8.56847216      -5.91732760      -7.20548815
C       -7.22217777      -6.27539302      -7.08954037
H       -0.87809730      -5.05199662      -5.10949097
H       -0.18552109      -3.45054530      -3.72517528
H       -3.64003054      -2.20474223      -2.01725239
H       -2.87728234      -0.38758590      -0.12085095
H       -4.41700306      -4.33177034      -5.35585021
H       -4.39503081      -5.66605317      -4.13783236
H       -6.47715087      -4.57743953      -4.22398265
H       -8.82642439      -3.94419036      -4.44649450
H       -9.16889560      -6.29212030      -8.02942064
C       -6.67327292      -7.14804109      -8.09492030
C       -6.21356511      -7.87888385      -8.93692599
Br      -5.47025646      -9.06059479     -10.29837798
O       -5.58341932       2.54338887       7.12677303
C       -5.01095466       2.88070807       6.09152698
N       -4.33655619       1.93986483       5.34281737
N       -3.62716888       2.26823266       4.22478175
C       -3.04000623       1.27640755       3.63227384
C       -2.23030316       1.49300646       2.46910813
C       -1.92007904       2.62944386       1.74640614
C       -1.03731984       2.22421732       0.71485823
C       -0.86757585       0.86757585       0.86757585
O       -1.59233690       0.41458089       1.92547617
C       -4.98575779       4.30759165       5.53969826
O       -5.81369476       5.17817789       6.30313425
C       -6.14399689       6.37900996       5.73182307
C       -5.44904832       6.95406133       4.66153597
C       -5.85941815       8.17939322       4.12679575
C       -6.95891023       8.84149987       4.66833634
Cl      -7.46250237      10.34375420       3.99922071
C       -7.64853088       8.29672228       5.74603474
C       -7.23770493       7.07112206       6.27828417
H       -4.35274954       0.98785929       5.69897606
H       -3.12669408       0.23635655       3.99819103
H       -2.28223769       3.62786595       1.95192152
H       -0.57884181       2.84726058      -0.04038320
H       -5.34218795       4.25839612       4.50403955
H       -3.95128762       4.66420044       5.58342829
H       -4.57770082       6.47710986       4.22376237
H       -5.31548502       8.61116996       3.29045426
H       -8.50052800       8.82223814       6.16767041
C       -7.98213947       6.54234310       7.39175174
C       -8.60560340       6.09949073       8.32428083
Br      -9.61369185       5.38343589       9.83210149
O        7.74573931      -3.39757174       4.11027017
C        6.52546768      -3.47955283       3.97816920
N        5.87992376      -2.68107981       3.05823483
N        4.52300851      -2.67979012       2.91738467
C        4.06208917      -1.86955923       2.01703921
C        2.65085243      -1.74381636       1.79774896
C        1.55845670      -2.37007077       2.36740157
C        0.40782401      -1.80050543       1.76806594
C        0.86757585      -0.86757585       0.86757585
O        2.22707375      -0.83079014       0.87453007
C        5.62884353      -4.43061348       4.77359069
O        6.39359692      -5.30301775       5.59839223
C        5.75232793      -6.40730699       6.09519500
C        4.36058105      -6.53873897       6.16532561
C        3.78393354      -7.70623816       6.67543541
C        4.59658200      -8.74247779       7.12968666
Cl       3.87951135     -10.17855347       7.74741246
C        5.98129960      -8.62139135       7.08859696
C        6.55587072      -7.45419571       6.57704473
H        6.46858888      -2.04993668       2.52105933
H        4.72575409      -1.24040463       1.39508294
H        1.59559370      -3.13612815       3.13030331
H       -0.62650818      -2.03839920       1.97382817
H        5.04875211      -5.01010772       4.04576379
H        4.97285590      -3.82160127       5.40445917
H        3.69457634      -5.74682509       5.83717162
H        2.70156646      -7.79849586       6.71704692
H        6.60854137      -9.43064676       7.45124842
C        7.99330487      -7.37249556       6.55043388
C        9.19715598      -7.30407168       6.52814729
Br      11.14368139      -7.19343607       6.49211177
