117
Properties=species:S:1:pos:R:3 pbc="F F F"
C        0.00000000       0.00000000       0.00000000
O        4.00793899       7.76039948      -3.48524276
C        3.90648601       6.53572202      -3.54098168
N        2.98303506       5.88717631      -2.74902703
N        2.87404210       4.52767417      -2.71846702
C        1.96555880       4.06439494      -1.91873386
C        1.77645582       2.65163639      -1.76432554
C        2.38642895       1.55884960      -2.35065048
C        1.80073150       0.40782944      -1.76783445
C        0.86757585       0.86757585      -0.86757585
O        0.84177371       2.22733756      -0.86328269
C        4.74530862       5.63640207      -4.45133701
O        5.57266052       6.40007337      -5.32227302
C        6.11072478       5.74520444      -6.39890070
C        6.21659632       4.35284363      -6.49520568
C        6.76796261       3.76139747      -7.63624703
C        7.22778297       4.56020115      -8.68076233
Cl       7.89644368       3.82469826     -10.08433534
C        7.15134912       5.94599123      -8.59394755
C        6.59859718       6.53532043      -7.45319355
Br       6.51643475       8.43306923      -7.39179015
H        2.41721186       6.47741032      -2.14496271
H        1.31329216       4.72750475      -1.32044476
H        3.16641986       1.59632127      -3.09928404
H        2.03633538      -0.62655775      -1.97594156
H        4.04540086       5.02558120      -5.03364156
H        5.37658019       5.01020433      -3.81213182
H        5.88522964       3.69790062      -5.69544278
H        6.83713823       2.67847599      -7.70149502
H        7.51851881       6.56261472      -9.40930301
O       -4.04111746      -7.75611443      -3.45634933
C       -3.92972752      -6.53272531      -3.52073689
N       -3.00739845      -5.88518461      -2.72665534
N       -2.88808685      -4.52636663      -2.70572981
C       -1.98222368      -4.06390552      -1.90255841
C       -1.78334779      -2.65148975      -1.75758020
C       -2.38027604      -1.55862123      -2.35703177
C       -1.79016489      -0.40765731      -1.77857319
C       -0.86757585      -0.86757585      -0.86757585
O       -0.85237109      -2.22742167      -0.85260119
C       -4.75449671      -5.63406511      -4.44448588
O       -5.58101797      -6.39807879      -5.31591015
C       -6.10566407      -5.74746490      -6.40170095
C       -6.19997095      -4.35511950      -6.50955518
C       -6.73791445      -3.76832242      -7.65937025
C       -7.19586111      -4.57164775      -8.70123759
Cl      -7.84794931      -3.84193781     -10.11559016
C       -7.13086596      -5.95726964      -8.60315231
C       -6.59151824      -6.54196280      -7.45363012
Br      -6.52457591      -8.43975429      -7.37696392
H       -2.45085038      -6.47505234      -2.11368218
H       -1.33975891      -4.72735586      -1.29412689
H       -3.15474070      -1.59589377      -3.11139069
H       -2.01611533       0.62686744      -1.99647129
H       -4.04539742      -5.03319924      -5.02602696
H       -5.38579324      -4.99807350      -3.81504960
H       -5.86970120      -3.69655732      -5.71231452
H       -6.79817076      -2.68543942      -7.73349907
H       -7.49651872      -6.57735973      -9.41655809
O       -6.57496744       2.39702387       6.28158991
C       -5.70553674       2.77832517       5.49932781
N       -5.06538099       1.86627555       4.68758185
N       -4.04721517       2.22113359       3.85183454
C       -3.53907429       1.25168661       3.15792670
C       -2.43673405       1.48441932       2.27126438
C       -1.73556140       2.62656732       1.93380032
C       -0.72057859       2.22573463       1.03008217
C       -0.86757585       0.86757585       0.86757585
O       -1.90994570       0.41046148       1.61198678
C       -5.25963113       4.23330458       5.34011200
O       -6.06289059       5.11445389       6.11766242
C       -5.99375499       6.44848672       5.81258821
C       -4.95227460       7.03117900       5.08119202
C       -4.96331270       8.40127716       4.80101725
C       -6.00946922       9.19723188       5.26204535
Cl      -6.02005768      10.87977595       4.90564365
C       -7.04175233       8.64040800       6.00912757
C       -7.02970955       7.27043569       6.28696592
Br      -8.46832326       6.56434239       7.30862848
H       -5.35928087       0.89775602       4.78254800
H       -3.91969287       0.21553512       3.22601367
H       -1.93199927       3.62258162       2.30744427
H        0.02725594       2.85074255       0.56223257
H       -5.34682058       4.48194160       4.27586144
H       -4.21982088       4.30250711       5.67658835
H       -4.11154729       6.44734510       4.71968066
H       -4.15213126       8.83972755       4.22525044
H       -7.85044876       9.26859073       6.37139705
O        6.54525769      -2.39502363       6.31329991
C        5.68472606      -2.77691869       5.52154497
N        5.04379366      -1.86357325       4.71187149
N        4.03473913      -2.21974603       3.86569813
C        3.52448133      -1.24890584       3.17530044
C        2.43070999      -1.48320973       2.27849803
C        1.74086825      -2.62803094       1.92702985
C        0.72973583      -2.22801312       1.01864643
C        0.86757585      -0.86757585       0.86757585
O        1.90074424      -0.40827090       1.62337882
C        5.25117561      -4.23397927       5.34789282
O        6.05522547      -5.11492755       6.12485389
C        5.99860515      -6.44707556       5.80914922
C        4.96718734      -7.03204386       5.06541443
C        4.99082286      -8.39983725       4.77494700
C        6.03950555      -9.19133390       5.23790700
Cl       6.06565797     -10.87097582       4.86884349
C        7.06180536      -8.63242215       5.99706039
C        7.03718390      -7.26474436       6.28518289
Br       8.46256686      -6.55558836       7.32313892
H        5.32955296      -0.89360632       4.81642562
H        3.89664123      -0.21044759       3.25415284
H        1.94207365      -3.62535341       2.29459810
H       -0.00972890      -2.85508158       0.54036651
H        5.34833371      -4.47380558       4.28248433
H        4.20940219      -4.31363752       5.67587663
H        4.12478843      -6.45185808       4.70192654
H        4.18740751      -8.84001463       4.18968710
H        7.87250849      -9.25720296       6.36072510
