182
Properties=species:S:1:pos:R:3 pbc="F F F"
S        6.46013997       9.48193662      -9.51451696
C        7.69977318       9.42049052      -8.40881489
O        7.77739816       8.45259453      -7.40329000
C        7.01024556       7.32847790      -6.97361790
C        6.36631731       6.45433526      -7.83990042
C        5.66335634       5.37168609      -7.30299495
C        5.62239624       5.17030153      -5.91457375
C        6.32728227       6.03064399      -5.06152203
C        7.01955692       7.11515134      -5.59402847
C        4.83871791       4.02442305      -5.37423787
O        4.80223117       2.98369164      -6.01978340
N        4.18478301       4.29194644      -4.18484592
C        3.39815517       3.40914799      -3.41925446
C        3.23584420       2.05372375      -3.71071623
C        2.43213873       1.24495785      -2.89918114
C        1.79073643       1.79073643      -1.79073643
C        1.94892670       3.13869632      -1.48267479
C        2.75309821       3.94389958      -2.29478873
N        8.63921468      10.42200038      -8.34951275
C        9.72366087      10.58328142      -7.46435850
C       10.29786966       9.54405498      -6.72705328
C       11.34808952       9.79559596      -5.83759394
C       11.83602549      11.08965829      -5.68967190
Br      13.23685609      11.43237576      -4.46963896
C       11.29831364      12.13070824      -6.44123762
C       10.25310893      11.87378848      -7.33492805
H        6.40444411       6.58171612      -8.91651566
H        5.14338249       4.68318236      -7.96828010
H        6.36648183       5.85468804      -3.99079930
H        7.57023521       7.78824242      -4.94146169
H        4.20895102       5.24827221      -3.85778110
H        3.72468196       1.59245995      -4.56402338
H        2.31721453       0.19251796      -3.14634236
H        1.45256354       3.57286802      -0.61902414
H        2.86105702       4.99427313      -2.03688452
H        8.42571023      11.20245870      -8.96026722
H        9.97949275       8.51370073      -6.84044526
H       11.77636140       8.97235379      -5.27192867
H       11.67790915      13.14441660      -6.33503580
H        9.83964909      12.70497483      -7.90074265
S      -10.45469097      -7.09018390      -7.91171867
C       -9.15325100      -7.52668463      -8.84914296
O       -7.82778092      -7.37271220      -8.43278957
C       -7.14533911      -6.89162827      -7.27537398
C       -7.58630029      -7.09948051      -5.97477219
C       -6.81968161      -6.60120955      -4.91714622
C       -5.62188610      -5.91488336      -5.17050206
C       -5.16524715      -5.76677280      -6.48742835
C       -5.93266703      -6.25367284      -7.54239686
C       -4.84518113      -5.37031528      -4.02188242
O       -4.83387559      -6.00057809      -2.97125253
N       -4.24015654      -4.15123918      -4.27017966
C       -3.42064777      -3.40560348      -3.40030637
C       -3.00407614      -3.85137859      -2.14482945
C       -2.19151748      -3.04521659      -1.33954366
C       -1.79073643      -1.79073643      -1.79073643
C       -2.19151447      -1.33544584      -3.04333750
C       -3.00254927      -2.14339438      -3.84584287
N       -9.32867050      -7.93107510     -10.15098221
C       -8.36662821      -8.28795523     -11.11671735
C       -7.06253344      -8.69061127     -10.81583321
C       -6.15438038      -8.98970809     -11.83719095
C       -6.55166003      -8.89680628     -13.16688936
Br      -5.31723504      -9.27613639     -14.54549939
C       -7.85662758      -8.53003140     -13.48360052
C       -8.76380496      -8.23880156     -12.45921894
H       -8.49824889      -7.64576454      -5.75866245
H       -7.15743385      -6.74593214      -3.89147897
H       -4.20869045      -5.30038452      -6.70289419
H       -5.58747508      -6.14481870      -8.56764554
H       -4.46559741      -3.70201984      -5.14738709
H       -3.29292792      -4.82605923      -1.76217813
H       -1.88120461      -3.41096115      -0.36390908
H       -1.88278972      -0.35791556      -3.40375042
H       -3.30541489      -1.76719926      -4.81960050
H      -10.28529080      -7.83166912     -10.47147623
H       -6.72074494      -8.81821198      -9.79468181
H       -5.14432122      -9.29698035     -11.57934228
H       -8.17637270      -8.46015338     -14.52083547
H       -9.77344346      -7.94092352     -12.73099960
S       -6.47836206       9.72443814       9.25379335
C       -7.79186852       9.46976681       8.26744327
O       -7.86527940       8.41569485       7.35230844
C       -7.04058469       7.32312917       6.94862749
C       -6.25701850       6.58076204       7.82277245
C       -5.50815411       5.51504229       7.31484098
C       -5.56024672       5.19860208       5.94842273
C       -6.40211181       5.92356940       5.09376709
C       -7.14087259       6.99160295       5.59626119
C       -4.72604205       4.07619527       5.43514152
O       -4.54888294       3.10117431       6.15564896
N       -4.19401623       4.29121399       4.17634515
C       -3.39742921       3.41089120       3.41823722
C       -3.09626996       2.10280034       3.80121387
C       -2.29274931       1.29339433       2.99013409
C       -1.79073643       1.79073643       1.79073643
C       -2.08847659       3.09031017       1.39151105
C       -2.89210704       3.89619101       2.20348847
N       -8.81588238      10.38475085       8.21009458
C       -9.97697680      10.38259543       7.41172856
C      -10.51612758       9.24141684       6.81143349
C      -11.65135382       9.33124364       5.99868196
C      -12.25922043      10.56494017       5.79119509
Br     -13.77672486      10.68900708       4.67313887
C      -11.75534132      11.70626408       6.40865410
C      -10.62429638      11.61106249       7.22646659
H       -6.22046535       6.79705305       8.88515749
H       -4.87963555       4.92987629       7.98533311
H       -6.51080400       5.65341209       4.04775308
H       -7.79754666       7.56012331       4.94226934
H       -4.32640278       5.21084280       3.77775874
H       -3.47429236       1.67949814       4.72737479
H       -2.06828383       0.27862385       3.30916717
H       -1.70146554       3.48641206       0.45657810
H       -3.11032910       4.90853576       1.87334981
H       -8.62268294      11.22942199       8.73633123
H      -10.10212494       8.25318626       6.97832754
H      -12.05057714       8.43093459       5.53913212
H      -12.22813572      12.67372728       6.25549855
H      -10.24045612      12.51809897       7.68681149
S       10.33422804      -6.84448024       8.27788527
C        9.00222796      -7.51115794       9.01569270
O        7.71632849      -7.44537946       8.47157474
C        7.10398647      -6.90901129       7.29934359
C        7.69357283      -6.92515069       6.04182946
C        6.98608208      -6.39136718       4.96058813
C        5.69984696      -5.86119441       5.14623015
C        5.09979024      -5.90751437       6.41214370
C        5.80707065      -6.42967877       7.49198731
C        4.98634211      -5.27249470       3.97854203
O        5.15085359      -5.77951146       2.87534116
N        4.22722309      -4.15559606       4.27875623
C        3.42100867      -3.40350374       3.40204521
C        3.18479455      -3.74589985       2.06958978
C        2.37222043      -2.94047707       1.26358023
C        1.79073643      -1.79073643       1.79073643
C        2.01056221      -1.44019535       3.11954025
C        2.82210791      -2.24722697       3.92245164
N        9.09024538      -8.03866062      10.28182181
C        8.08207718      -8.59574443      11.09347918
C        6.86784962      -9.09103657      10.61009173
C        5.90093464      -9.59179449      11.48855029
C        6.15001163      -9.60849500      12.85684905
Br       4.83364709     -10.26116363      14.04406010
C        7.36751920      -9.15035660      13.35238370
C        8.33465069      -8.65713701      12.47003777
H        8.67783337      -7.34968685       5.87515567
H        7.43901298      -6.38612255       3.96970942
H        4.08040711      -5.56637098       6.56519108
H        5.35082899      -6.47108518       8.47802515
H        4.31201726      -3.78674745       5.21623963
H        3.61751853      -4.63788083       1.62576592
H        2.20406946      -3.22432239       0.22768300
H        1.56010219      -0.54490808       3.53944543
H        2.98191790      -1.95358672       4.95671004
H        9.99280647      -7.88021833      10.71541135
H        6.64656770      -9.13751030       9.54956073
H        4.96245467      -9.96809996      11.09008922
H        7.57183604      -9.16495752      14.42056798
H        9.27236604      -8.29171636      12.88128417
C       -0.00445707       0.01189536      -1.78238275
H       -0.66409135       0.67374010      -2.43557963
H        0.65740317      -0.63156657      -2.45157240
C       -0.90989263      -0.90692880      -0.91072765
C        0.90977584       0.90977584      -0.90977584
C       -0.00465871       1.77757030       0.00794375
H       -0.66225468       2.44313916      -0.64384735
H        0.64322798       2.43503045       0.67728295
C       -1.78241447       0.00034974      -0.00472694
H       -2.45427497      -0.65498947       0.64260836
H       -2.43311707       0.67328779      -0.65473579
C       -0.91132561       0.90220522       0.91563759
C       -0.01476271      -0.02253852       1.78660255
H       -0.67934791      -0.69751639       2.42135241
H        0.63392994       0.61504881       2.47327442
C        0.01484550      -1.77751727      -0.01636693
H        0.67870853      -2.42144646      -0.68295456
H       -0.62264859      -2.45592969       0.64226336
C        1.78714474       0.01002794       0.00389507
H        2.44202412       0.67113390       0.66197326
H        2.45385902      -0.65136977      -0.64189061
C        0.91606151      -0.90478549       0.90901405
