178
Properties=species:S:1:pos:R:3 pbc="F F F"
O        4.96486327       1.89025286      -9.48973985
C        4.76508696       2.46372596      -8.42023186
N        4.09614435       1.84432554      -7.38774714
N        3.86056140       2.48680867      -6.14408299
C        3.16765174       1.70778447      -5.30243242
H        2.79310958       0.71614695      -5.54218195
C        2.88792356       2.18974596      -3.92783140
C        2.08002724       1.39526477      -3.10239116
C        1.79324117       1.79324117      -1.79324117
C        2.30292525       2.98483893      -1.27863836
C        3.10697193       3.78855655      -2.08268782
C        3.39167231       3.39055193      -3.38783457
O        4.19459200       4.22461979      -4.12420779
C        5.20390418       3.89072221      -8.15261726
C        5.85454267       4.55768000      -9.35584899
C        6.42592173       5.94375512      -9.07288527
O        7.44600688       6.31733357      -9.65082754
N        5.65983396       6.71922431      -8.22017633
C        5.88939871       8.04333162      -7.79679364
C        6.93782118       8.84390415      -8.25374821
C        7.08554508      10.15437098      -7.78630187
C        6.18769043      10.67457772      -6.85613717
C        5.14348524       9.87878388      -6.39590155
Br       3.92148694      10.57586377      -5.13205273
C        4.99044200       8.57141385      -6.85942113
H        3.77346278       0.89547831      -7.52672404
H        1.67538935       0.46355664      -3.48736619
H        2.08326680       3.29364710      -0.26179180
H        3.51743168       4.71886066      -1.70385892
H        4.27272311       3.74351869      -4.98699734
H        5.90220575       3.89504980      -7.30794900
H        4.30164766       4.44229870      -7.86975279
H        5.14021908       4.64675175     -10.18283296
H        6.68458142       3.93206655      -9.70900806
H        4.84750666       6.27975926      -7.80684202
H        7.65710179       8.47639422      -8.97943220
H        7.90699914      10.76545344      -8.15258564
H        6.31121958      11.69232030      -6.49834829
H        4.17269375       7.96262017      -6.48087768
O       -9.56480489      -2.01016202      -4.76988907
C       -8.42432145      -2.47025869      -4.75446464
N       -7.44707029      -1.93908856      -3.94205818
N       -6.12678214      -2.45917223      -3.90549870
C       -5.34073361      -1.76896693      -3.06816809
H       -5.65262362      -0.89256689      -2.50624797
C       -3.94246767      -2.21312600      -2.84990725
C       -3.11627285      -1.41743942      -2.04397091
C       -1.79324117      -1.79324117      -1.79324117
C       -1.26601391      -2.96467260      -2.33571603
C       -2.07016491      -3.76855242      -3.13949896
C       -3.38892746      -3.39229773      -3.38883362
O       -4.12856150      -4.23157443      -4.18328365
C       -7.98733966      -3.62670715      -5.63319684
C       -9.07819030      -4.11414696      -6.57573441
C       -8.70840450      -5.36153218      -7.37262544
O       -9.57278020      -6.19266047      -7.64872731
N       -7.39428161      -5.39993701      -7.80501597
C       -6.75814749      -6.38419439      -8.58718209
C       -7.40686059      -7.49108271      -9.13753024
C       -6.69816838      -8.41618250      -9.91186705
C       -5.33435403      -8.24367565     -10.14037564
C       -4.68364195      -7.14361401      -9.59091470
Br      -2.83256609      -6.90265525      -9.89418209
C       -5.38552601      -6.21700829      -8.81874269
H       -7.69064424      -1.15732504      -3.34769586
H       -3.51141101      -0.50196592      -1.61293525
H       -0.24004218      -3.25890418      -2.13975933
H       -1.68335159      -4.68610217      -3.57069751
H       -5.01245399      -3.78418323      -4.20660192
H       -7.65762065      -4.45361659      -4.99396729
H       -7.13316195      -3.26566576      -6.21487143
H       -9.35660209      -3.32692748      -7.28627422
H       -9.97554983      -4.35784137      -5.99226484
H       -6.78778654      -4.65191624      -7.49440515
H       -8.46845553      -7.66015819      -8.98431450
H       -7.21811363      -9.27272437     -10.33420021
H       -4.79262982      -8.96759926     -10.74165909
H       -4.85686132      -5.36841039      -8.39091989
O       -3.94514388       9.79412199       2.60559011
C       -4.10310192       8.61783173       2.92811112
N       -3.34086124       7.61319611       2.37415967
N       -3.50378216       6.25058016       2.73709074
C       -2.67830515       5.44850041       2.05106307
H       -1.98814187       5.78246157       1.28083503
C       -2.66105130       3.99555186       2.34889776
C       -1.85843447       3.16853572       1.55071299
C       -1.79324117       1.79324117       1.79324117
C       -2.52126426       1.21346504       2.83167324
C       -3.32502002       2.01760134       3.63559494
C       -3.38922924       3.38856381       3.39226575
O       -4.19466183       4.12418694       4.22457080
C       -5.15201544       8.16810584       3.92712237
C       -6.02576810       9.30473889       4.43756467
C       -6.99746733       8.90228121       5.54281359
O       -7.27697310       9.70128344       6.43591145
N       -7.56650119       7.65104382       5.38168958
C       -8.52073204       7.01135122       6.19744071
C       -9.12592557       7.60060785       7.30894013
C      -10.07309281       6.89453088       8.05859424
C      -10.42128738       5.59242550       7.70469243
C       -9.81797825       5.00058418       6.59960824
Br     -10.28298011       3.23317259       6.11325074
C       -8.87348510       5.70034837       5.84744351
H       -2.63688312       7.86598851       1.69279351
H       -1.28424820       3.60412026       0.73794373
H       -2.46953316       0.14649284       3.02267969
H       -3.89873905       1.59004021       4.45137201
H       -4.07283661       5.04666266       3.88373987
H       -4.65199778       7.68113105       4.77207571
H       -5.77360138       7.43038052       3.40971725
H       -6.60622589       9.74523582       3.61834208
H       -5.38415641      10.09717970       4.84431993
H       -7.23565670       7.09398883       4.60446240
H       -8.88331290       8.61341311       7.61620220
H      -10.53603227       7.36782982       8.92117613
H      -11.15652973       5.05204269       8.29331575
H       -8.40696627       5.21696435       4.99226097
O        5.28956248      -9.34791227       1.70738124
C        5.16352737      -8.24619435       2.23932306
N        4.32098707      -7.28953655       1.71769341
N        4.15729179      -6.01447210       2.31968918
C        3.31389095      -5.23855560       1.62542209
H        2.83426928      -5.52420352       0.69296568
C        2.96884273      -3.89248616       2.14417203
C        2.16080360      -3.06710831       1.34977128
C        1.79324117      -1.79324117       1.79324117
C        2.21890697      -1.31533728       3.03215829
C        3.02270947      -2.11949339       3.83601344
C        3.38861219      -3.38917122       3.39227540
O        4.17624723      -4.13222073       4.23495162
C        5.93123070      -7.83492333       3.48108961
C        6.91418199      -8.89300189       3.96088778
C        7.59917614      -8.56041145       5.28297452
O        7.88020932      -9.46116928       6.07278939
N        7.93438785      -7.22665838       5.43818836
C        8.60327198      -6.61138238       6.51486961
C        9.12391726      -7.29886836       7.61268792
C        9.78378815      -6.60771783       8.63471195
C        9.92644982      -5.22305890       8.56889660
C        9.40609731      -4.53400608       7.47806727
Br       9.59332751      -2.65461071       7.38146522
C        8.74800034      -5.21813153       6.45514511
H        3.79802885      -7.51599366       0.88164262
H        1.81989666      -3.42424586       0.38216966
H        1.93217222      -0.32778943       3.37874404
H        3.36422868      -1.77077751       4.80514508
H        4.29121544      -4.97891995       3.73310375
H        5.21730383      -7.60711199       4.28078872
H        6.47374817      -6.92098616       3.21896482
H        7.69285716      -9.06784872       3.20909791
H        6.38064678      -9.84176575       4.10324350
H        7.63171414      -6.59070900       4.71168479
H        9.03511932      -8.37751850       7.70029039
H       10.18441839      -7.15781611       9.48280371
H       10.43908736      -4.69530870       9.36749211
H        8.34076846      -4.66027583       5.61514731
C       -0.00445707       0.01189536      -1.78238275
H       -0.66409135       0.67374010      -2.43557963
H        0.65740317      -0.63156657      -2.45157240
C       -0.90989263      -0.90692880      -0.91072765
C        0.90977584       0.90977584      -0.90977584
C       -0.00465871       1.77757030       0.00794375
H       -0.66225468       2.44313916      -0.64384735
H        0.64322798       2.43503045       0.67728295
C       -1.78241447       0.00034974      -0.00472694
H       -2.45427497      -0.65498947       0.64260836
H       -2.43311707       0.67328779      -0.65473579
C       -0.91132561       0.90220522       0.91563759
C       -0.01476271      -0.02253852       1.78660255
H       -0.67934791      -0.69751639       2.42135241
H        0.63392994       0.61504881       2.47327442
C        0.01484550      -1.77751727      -0.01636693
H        0.67870853      -2.42144646      -0.68295456
H       -0.62264859      -2.45592969       0.64226336
C        1.78714474       0.01002794       0.00389507
H        2.44202412       0.67113390       0.66197326
H        2.45385902      -0.65136977      -0.64189061
C        0.91606151      -0.90478549       0.90901405
