165
Properties=species:S:1:pos:R:3 pbc="F F F"
C        0.00000000       0.00000000       0.00000000
O        4.05495925       0.98034883      -8.57983583
C        3.85518293       1.55382194      -7.51032784
N        3.18624033       0.93442152      -6.47784312
N        2.95065738       1.57690465      -5.23417897
C        2.25774772       0.79788045      -4.39252839
H        1.88320555      -0.19375707      -4.63227792
C        1.97801954       1.27984193      -3.01792738
C        1.17012322       0.48536075      -2.19248714
C        0.88333714       0.88333714      -0.88333714
C        1.39302123       2.07493491      -0.36873433
C        2.19706790       2.87865253      -1.17278379
C        2.48176828       2.48064791      -2.47793055
O        3.28468798       3.31471576      -3.21430376
C        4.29400016       2.98081818      -7.24271323
C        4.94463865       3.64777598      -8.44594497
C        5.51601771       5.03385109      -8.16298125
O        6.53610285       5.40742955      -8.74092351
N        4.74992993       5.80932029      -7.31027230
C        4.97949469       7.13342759      -6.88688961
C        6.02791715       7.93400013      -7.34384419
C        6.17564105       9.24446696      -6.87639785
C        5.27778640       9.76467369      -5.94623315
C        4.23358121       8.96887985      -5.48599753
C        4.08053798       7.66150983      -5.94951710
H        2.86355876      -0.01442572      -6.61682002
H        0.76548532      -0.44634738      -2.57746217
H        1.17336277       2.38374308       0.64811222
H        2.60752766       3.80895664      -0.79395490
H        3.36281909       2.83361466      -4.07709332
H        4.99230172       2.98514577      -6.39804498
H        3.39174364       3.53239467      -6.95984876
H        4.23031505       3.73684773      -9.27292894
H        5.77467739       3.02216253      -8.79910404
H        3.93760263       5.36985523      -6.89693799
H        6.74719777       7.56649020      -8.06952817
H        6.99709512       9.85554942      -7.24268161
H        5.40131555      10.78241627      -5.58844427
H        3.26278973       7.05271615      -5.57097366
C        3.30310961       9.49966050      -4.52365949
C        2.52383964       9.94418929      -3.71770138
Br       1.26382601      10.66295475      -2.41453529
O       -8.95109818      -2.42830700      -2.23573873
C       -7.77488082      -2.58560350      -2.55884839
N       -6.75086531      -1.99923381      -1.84840583
N       -5.38704405      -2.17309286      -2.20160408
C       -4.56948973      -1.48804635      -1.39062048
H       -4.89836728      -0.84401649      -0.57934263
C       -3.10161615      -1.60623604      -1.56793667
C       -2.27444668      -0.80501066      -0.76851377
C       -0.88333714      -0.88333714      -0.88333714
C       -0.28742288      -1.75781258      -1.79145500
C       -1.09153602      -2.56177854      -2.59518966
C       -2.47833865      -2.48223955      -2.47976854
O       -3.21198029      -3.30565400      -3.29607322
C       -7.35075554      -3.40219336      -3.76458267
C       -8.52334508      -3.94964368      -4.56537083
C       -8.12486903      -4.88520985      -5.70277116
O       -8.85017369      -5.83351552      -6.00076670
N       -6.97751305      -4.51152783      -6.38048164
C       -6.37433312      -5.13440895      -7.49106983
C       -6.90876366      -6.23714506      -8.15985275
C       -6.24641552      -6.78747651      -9.26261382
C       -5.04285270      -6.24140480      -9.70443574
C       -4.50540509      -5.14447691      -9.03857660
C       -5.16212507      -4.59060669      -7.93883315
H       -6.98831884      -1.43445471      -1.04317951
H       -2.72237339      -0.11882005      -0.05540666
H        0.79226949      -1.82151614      -1.87974698
H       -0.65114063      -3.25196751      -3.30733106
H       -4.14420506      -3.09535680      -3.03396520
H       -6.71739303      -4.23063326      -3.42746618
H       -6.75515022      -2.73405107      -4.39478578
H       -9.11788587      -3.13216513      -4.99004073
H       -9.18251144      -4.51748751      -3.89594501
H       -6.47202984      -3.71267337      -6.01969266
H       -7.84489059      -6.69038245      -7.84794310
H       -6.67612976      -7.64594379      -9.77325260
H       -4.53558224      -6.67615512     -10.56043874
H       -4.72121983      -3.73859615      -7.42666355
C       -3.26127086      -4.57622586      -9.48893287
C       -2.21930845      -4.10031561      -9.86610626
Br      -0.53454335      -3.33080898     -10.47596372
O       -5.85018186       7.53250948       0.23245256
C       -5.40566209       6.60578394       0.90788668
N       -4.48379863       5.72085232       0.39385400
N       -3.95453192       4.64852221       1.15868686
C       -3.09959076       3.90140023       0.44716557
H       -2.85886286       4.06308300      -0.60021946
C       -2.39523739       2.77452400       1.10602746
C       -1.58120297       1.95266471       0.31410343
C       -0.88333714       0.88333714       0.88333714
C       -0.97889153       0.61033609       2.24746285
C       -1.78275925       1.41448996       3.05125502
C       -2.47819386       2.48001585       2.48213702
O       -3.24696815       3.23630938       3.33042998
C       -5.84388379       6.33851676       2.33513102
C       -6.92939568       7.28804494       2.82091898
C       -7.29070262       7.12763652       4.29451090
O       -7.61420525       8.11196250       4.95828817
N       -7.30627796       5.81890816       4.74433640
C       -7.63500746       5.33767312       6.02713131
C       -8.09116826       6.14015100       7.07444221
C       -8.40470765       5.57596850       8.31582971
C       -8.26240650       4.20501664       8.52127010
C       -7.80499289       3.40244894       7.48101675
C       -7.49183942       3.95937625       6.24034924
H       -4.17230264       5.85330360      -0.55965318
H       -1.49504893       2.15183741      -0.75028624
H       -0.43567944      -0.21775045       2.69106464
H       -1.87100818       1.22363768       4.11579333
H       -3.62206371       3.92585095       2.72561241
H       -4.97105479       6.41044036       2.99399732
H       -6.21914476       5.31035323       2.35448908
H       -7.84514352       7.16405116       2.23089704
H       -6.59075211       8.32300902       2.68218283
H       -7.00667183       5.10645419       4.09126984
H       -8.21724952       7.21190533       6.95406129
H       -8.75957348       6.21445814       9.12129452
H       -8.50712302       3.77652749       9.48852558
H       -7.12759467       3.31626051       5.44262435
C       -7.65418755       1.98525644       7.68698560
C       -7.52788809       0.79835772       7.85948450
Br      -7.32367253      -1.12075712       8.13840064
O        0.54455011      -8.16327343       4.90732037
C        1.19952269      -7.19519414       4.52461587
N        0.61759056      -6.17303452       3.80787988
N        1.35476348      -5.04480236       3.36217516
C        0.59239167      -4.19490906       2.66085583
H       -0.45592697      -4.35470497       2.42294840
C        1.17958181      -2.92318083       2.17302621
C        0.38677173      -2.09953080       1.36166857
C        0.88333714      -0.88333714       0.88333714
C        2.17376078      -0.46138073       1.20154896
C        2.97748220      -1.26539159       2.00563044
C        2.48106387      -2.47784696       2.48143591
O        3.32171583      -3.21869767       3.27329400
C        2.68823952      -7.05216578       4.77712627
C        3.29710555      -8.25044060       5.49081344
C        4.76255280      -8.07357140       5.87672585
O        5.19048635      -8.58124605       6.91272351
N        5.52793294      -7.40259396       4.93899561
C        6.90683567      -7.11559736       4.97737887
C        7.77245062      -7.55085910       5.98245176
C        9.13290756      -7.22732162       5.93627667
C        9.63887089      -6.46374086       4.88608149
C        8.77881317      -6.02535708       3.88428834
C        7.42120252      -6.34593677       3.92442562
H       -0.37183540      -6.23289225       3.60489620
H       -0.62110304      -2.41292278       1.10478037
H        2.55951180       0.48362497       0.83310679
H        3.98400881      -0.95729492       2.26913547
H        2.76536692      -4.00619671       3.50196343
H        2.86283337      -6.14535180       5.36730729
H        3.15685652      -6.93197590       3.79515464
H        3.21472494      -9.15241403       4.87295275
H        2.73954481      -8.43894030       6.41745886
H        5.04203483      -7.02799534       4.13436568
H        7.41777996      -8.14910275       6.81633343
H        9.79428819      -7.57461028       6.72642767
H       10.69591955      -6.21672799       4.85952855
H        6.76380081      -5.98642083       3.13625789
C        9.29476702      -5.23465899       2.79700358
C        9.72687838      -4.57244935       1.88640259
Br      10.42556589      -3.50171236       0.41403780
