178
Properties=species:S:1:pos:R:3 pbc="F F F"
C       13.97667631       4.60472148      -3.23090229
O       13.64617380       4.59570170      -1.84670186
C       12.39738738       5.03706152      -1.50765263
C       11.41374121       5.46499410      -2.39710811
C       10.17089035       5.90290126      -1.92257306
C        9.89935743       5.92650959      -0.55251650
O        8.69845045       6.32785092      -0.02370356
C        7.99161900       7.32873522      -0.75159665
C        6.98974416       6.75290257      -1.74945767
O        6.78662763       7.27398724      -2.84283981
N        6.32886049       5.63960303      -1.25453539
N        5.36534680       5.02399922      -1.99243542
C        4.70577726       4.10385602      -1.36541189
C        3.62502488       3.34435149      -2.02019479
C        2.82863172       2.52386337      -1.21314143
C        1.79196287       1.79196287      -1.79196287
C        1.55157260       1.85879435      -3.16350641
C        2.35092928       2.67657436      -3.96691021
C        3.37971285       3.42166706      -3.39637674
O        4.11107410       4.20439814      -4.24510981
C       10.88268063       5.46966318       0.33603229
C       12.12426770       5.03622803      -0.13902241
H       15.00721244       4.25146689      -3.33200476
H       13.93061570       5.61872741      -3.64228252
H       13.33254569       3.92033656      -3.79297227
H       11.57375380       5.46793813      -3.47073564
H        9.43474773       6.20632809      -2.66201984
H        8.66823703       8.03305593      -1.25030690
H        7.41468150       7.90949050      -0.02161443
H        6.60850994       5.26012784      -0.35178409
H        4.91328476       3.86254964      -0.30562692
H        3.00119728       2.46515835      -0.14243422
H        0.74656689       1.28566991      -3.61680121
H        2.16919884       2.73404184      -5.03735727
H        4.73670416       4.74476659      -3.71129239
H       12.89062999       4.69537458       0.55323654
C       10.65697758       5.44552651       1.75802932
C       10.46795129       5.42531205       2.94895183
Br      10.16231175       5.39262699       4.87457281
C       -0.62224388     -11.61807301      -9.57198319
O        0.41571497     -10.67818627      -9.82610606
C        0.09871007      -9.35575124      -9.68506035
C       -1.13769329      -8.85091802      -9.28723212
C       -1.34018565      -7.46864387      -9.18753515
C       -0.31167835      -6.57400051      -9.49270466
O       -0.43915972      -5.21090128      -9.39994394
C       -1.73686216      -4.67985895      -9.65522976
C       -2.58049848      -4.51865782      -8.39294810
O       -3.79131186      -4.72402981      -8.38811301
N       -1.83604467      -4.07622126      -7.31073298
N       -2.43565365      -3.83241152      -6.11371626
C       -1.67629015      -3.26806300      -5.23069203
C       -2.17368237      -2.93170169      -3.88418710
C       -1.35685936      -2.13747918      -3.07129798
C       -1.79196287      -1.79196287      -1.79196287
C       -3.02162122      -2.24025125      -1.31200090
C       -3.83323585      -3.03595651      -2.12522149
C       -3.41373025      -3.37501231      -3.40901408
O       -4.26620653      -4.14767983      -4.14669570
C        0.93791634      -7.08782233      -9.86640553
C        1.13742725      -8.46794991      -9.96899547
H       -0.21953195     -12.61931828      -9.75183386
H       -1.46552998     -11.47090440     -10.25519124
H       -0.94703129     -11.57161987      -8.52720336
H       -1.97016274      -9.50221307      -9.04005176
H       -2.31779208      -7.13178090      -8.85352268
H       -2.28113369      -5.26168862     -10.40877755
H       -1.59637308      -3.67576794     -10.07364542
H       -0.82684867      -3.98292157      -7.41065163
H       -0.62745582      -2.99731593      -5.45668958
H       -0.39834739      -1.77713839      -3.43330407
H       -3.36030432      -1.97525919      -0.31347451
H       -4.79372755      -3.38903785      -1.75783256
H       -3.90031484      -4.23658166      -5.05586664
H        2.10373988      -8.86388700     -10.27262091
C        2.04612928      -6.22008031     -10.17052374
C        2.97425760      -5.49334637     -10.42522275
Br       4.47496262      -4.31827905     -10.83704949
C      -14.01324196       4.22051674       3.57854139
O      -13.73209924       4.17219195       2.18428617
C      -12.51330673       4.64489946       1.78389533
C      -11.51509290       5.14009495       2.62065557
C      -10.30692213       5.60414359       2.08529894
C      -10.08537215       5.58682744       0.70618393
O       -8.91967233       6.01086282       0.11946978
C       -8.22480096       7.06244418       0.78470573
C       -7.16748497       6.55984319       1.76477624
O       -6.94495494       7.12781748       2.83068227
N       -6.48400090       5.45326264       1.28573537
N       -5.47277898       4.89998491       2.00901756
C       -4.80243588       3.98138530       1.39122399
C       -3.67177717       3.28550102       2.03229297
C       -2.87487424       2.46465121       1.22611107
C       -1.79196287       1.79196287       1.79196287
C       -1.50554717       1.91787205       3.15045414
C       -2.30543966       2.73577718       3.95319701
C       -3.38066799       3.42222680       3.39486185
O       -4.10974805       4.20922146       4.24161255
C      -11.08216422       5.06280109      -0.12865380
C      -12.28921939       4.60328273       0.40701601
H      -15.02578986       3.83478481       3.73010942
H      -13.99002020       5.25000875       3.95159668
H      -13.32470215       3.58069452       4.14045784
H      -11.63679770       5.17695863       3.69867124
H       -9.55663025       5.96065395       2.78581146
H       -8.90877226       7.76016352       1.28266408
H       -7.69602950       7.63602975       0.01372718
H       -6.78140494       5.03102258       0.40799435
H       -5.03847957       3.69390494       0.34907681
H       -3.08314875       2.36037251       0.16526859
H       -0.66432028       1.39087501       3.59384272
H       -2.08797593       2.83913650       5.01348553
H       -4.77349190       4.70691746       3.71235378
H      -13.06663092       4.21006083      -0.24392372
C      -10.90647038       4.99425518      -1.55625077
C      -10.75932678       4.93684797      -2.75186324
Br     -10.52140802       4.84402538      -4.68506748
C        1.78325313     -13.42247869       6.60656827
O        0.49314370     -12.84034237       6.75509129
C        0.44728460     -11.49585558       6.99896134
C        1.54682736     -10.64412823       7.08488784
C        1.36811399      -9.28015971       7.34809096
C        0.08853640      -8.75265280       7.53719432
O       -0.15638814      -7.42480518       7.78158790
C        0.85163770      -6.71937647       8.50093670
C        1.86809664      -6.03026226       7.59374550
O        3.05878116      -5.95866967       7.88600385
N        1.28190155      -5.47291334       6.46818401
N        2.03285164      -4.77782049       5.57110930
C        1.35522799      -4.16588706       4.65393012
C        2.01692159      -3.36428884       3.60836074
C        1.20561633      -2.56969939       2.79032079
C        1.79196287      -1.79196287       1.79196287
C        3.17160946      -1.80943798       1.59282593
C        3.97839252      -2.60663462       2.40938672
C        3.40383944      -3.37621112       3.41770609
O        4.25868075      -4.12173638       4.18016492
C       -1.01557851      -9.60883841       7.42305161
C       -0.83530978     -10.97097024       7.16385766
H        1.65007579     -14.49624277       6.44436553
H        2.38205818     -13.29486362       7.51470383
H        2.29998160     -13.01427281       5.73160011
H        2.56202570     -11.00296954       6.94743233
H        2.25927836      -8.65946150       7.38435579
H        1.36117720      -7.35773525       9.23268741
H        0.34672873      -5.92919096       9.06986674
H        0.29066658      -5.63239989       6.29735539
H        0.24963045      -4.20362902       4.62820185
H        0.12974151      -2.54247073       2.93657761
H        3.62971861      -1.20698893       0.81233048
H        5.05523746      -2.62513204       2.26022846
H        3.74486041      -4.54030089       4.90760185
H       -1.69268850     -11.63587576       7.08958077
C       -2.36184817      -9.12343976       7.58288319
C       -3.48934902      -8.71691838       7.71674214
Br      -5.31242252      -8.05960770       7.93318074
C       -0.00445707       0.01189536      -1.78238275
H       -0.66409135       0.67374010      -2.43557963
H        0.65740317      -0.63156657      -2.45157240
C       -0.90989263      -0.90692880      -0.91072765
C        0.90977584       0.90977584      -0.90977584
C       -0.00465871       1.77757030       0.00794375
H       -0.66225468       2.44313916      -0.64384735
H        0.64322798       2.43503045       0.67728295
C       -1.78241447       0.00034974      -0.00472694
H       -2.45427497      -0.65498947       0.64260836
H       -2.43311707       0.67328779      -0.65473579
C       -0.91132561       0.90220522       0.91563759
C       -0.01476271      -0.02253852       1.78660255
H       -0.67934791      -0.69751639       2.42135241
H        0.63392994       0.61504881       2.47327442
C        0.01484550      -1.77751727      -0.01636693
H        0.67870853      -2.42144646      -0.68295456
H       -0.62264859      -2.45592969       0.64226336
C        1.78714474       0.01002794       0.00389507
H        2.44202412       0.67113390       0.66197326
H        2.45385902      -0.65136977      -0.64189061
C        0.91606151      -0.90478549       0.90901405
