181
Properties=species:S:1:pos:R:3 pbc="F F F"
C        0.00000000       0.00000000       0.00000000
O       -7.13139292       6.28534862      -8.52966525
C       -6.34772064       7.08668335      -9.03026882
N       -5.05191985       7.33067228      -8.60101865
N       -4.55983856       6.67155415      -7.51555515
C       -3.28021618       6.76190272      -7.34885359
C       -2.59518726       6.07394050      -6.23958977
C       -1.23952904       5.77108066      -6.39087063
C       -0.57585777       5.05693002      -5.39350486
C       -1.26089526       4.68727005      -4.23393659
C       -2.61360106       4.99332691      -4.07581074
C       -3.28591699       5.68701899      -5.08595348
O       -0.67420754       3.87441374      -3.24438136
C        0.66004835       4.06345113      -2.92507460
O        1.37314038       5.00775620      -3.22477769
C        1.16752579       2.84371565      -2.25359323
C        2.50480084       2.48539806      -2.47646934
C        3.02079935       1.31736954      -1.91511091
C        2.20725847       0.51255889      -1.11799739
C        0.88213624       0.88213624      -0.88213624
C        0.35271937       2.04317362      -1.44558114
C       -6.72251369       7.89642036     -10.26758562
O       -6.25867372       9.24184727     -10.23555801
C       -7.09956382      10.17034546      -9.67632646
C       -8.01480502       9.87728438      -8.65876359
C       -8.81456530      10.88705345      -8.11435862
C       -8.69954035      12.19401825      -8.57969991
Cl      -9.68433081      13.43051277      -7.90191871
C       -7.78851279      12.50653089      -9.58387211
C       -6.98688206      11.49685745     -10.12407422
Br      -5.75913917      11.97709355     -11.49330572
H       -4.48500405       8.02624534      -9.07721645
H       -2.63868324       7.31793854      -8.05644461
H       -0.70072942       6.04655059      -7.29331766
H        0.46455109       4.78295436      -5.54378085
H       -3.14948632       4.67856456      -3.18484099
H       -4.34490617       5.91205085      -4.97692140
H        3.14243887       3.10776096      -3.10275660
H        4.05371242       1.03339300      -2.10322007
H        2.61459539      -0.39845303      -0.68596088
H       -0.68123464       2.31842542      -1.25564892
H       -7.80393266       7.84273556     -10.44439491
H       -6.24157108       7.41040777     -11.12484136
H       -8.12478370       8.87735417      -8.24816034
H       -9.51866343      10.64349045      -7.32186580
H       -7.70340233      13.52951279      -9.93996746
O        6.86492527      -5.02035830      -9.52818793
C        6.10570165      -5.84294412     -10.03198906
N        4.87140060      -6.22362887      -9.52754281
N        4.42127359      -5.69069189      -8.35785244
C        3.17001666      -5.89755566      -8.10300113
C        2.52790540      -5.35350584      -6.89274257
C        1.14544531      -5.15181334      -6.91605421
C        0.51344530      -4.57154947      -5.81647294
C        1.26103238      -4.23574245      -4.68560132
C        2.64135858      -4.44136977      -4.65552540
C        3.27936244      -4.99963184      -5.76678608
O        0.69745233      -3.55050895      -3.59153093
C       -0.58819021      -3.87142679      -3.18895708
O       -1.25007672      -4.84549286      -3.51010469
C       -1.12972902      -2.75136650      -2.38373915
C       -2.50395140      -2.48765629      -2.47506055
C       -3.05904939      -1.41136821      -1.78286220
C       -2.24619120      -0.60526381      -0.98635974
C       -0.88213624      -0.88213624      -0.88213624
C       -0.31440103      -1.95022331      -1.57684978
C        6.43823294      -6.52368500     -11.35604023
O        6.08141162      -7.90106405     -11.39907914
C        7.03282062      -8.79733659     -10.98259213
C        8.00336783      -8.50813883     -10.01647194
C        8.91882405      -9.48741822      -9.61825261
C        8.86513654     -10.76055698     -10.17875736
Cl       9.99247624     -11.96011079      -9.68046613
C        7.90133818     -11.06975206     -11.13347634
C        6.98437353     -10.09103760     -11.52738553
Br       5.68866895     -10.56523192     -12.83469713
H        4.32160156      -6.92524982     -10.01480948
H        2.51663763      -6.44913682      -8.80320071
H        0.55707858      -5.40147496      -7.79474246
H       -0.55345851      -4.37289412      -5.86493367
H        3.22292672      -4.15203129      -3.78481467
H        4.35766998      -5.14501728      -5.75671877
H       -3.14181517      -3.11097045      -3.10017081
H       -4.12234808      -1.19930695      -1.86867045
H       -2.68446732       0.23423358      -0.45186949
H        0.74942264      -2.15366650      -1.48859584
H        7.49445673      -6.36868052     -11.60897402
H        5.85359273      -6.01527129     -12.13199949
H        8.07073946      -7.53641234      -9.53505793
H        9.66489301      -9.24766992      -8.86391591
H        7.86487127     -12.06646974     -11.56447945
O      -11.95175418      -4.49676138       0.22862815
C      -12.49591487      -3.83266381       1.10598047
N      -11.86233748      -2.94489309       1.96232669
N      -10.51330994      -2.77358961       1.88755041
C      -10.05074367      -1.75104852       2.53084497
C       -8.61592584      -1.41327490       2.51569207
C       -8.25010740      -0.08688968       2.75920452
C       -6.90809449       0.28485300       2.68162963
C       -5.93732818      -0.67967273       2.40265594
C       -6.29766061      -2.00714276       2.16501873
C       -7.64490922      -2.37558339       2.21772965
O       -4.58342073      -0.34455020       2.20571703
C       -4.01274862       0.63647389       2.99935157
O       -4.45929062       1.11812780       4.02825584
C       -2.79306647       1.14397613       2.32779208
C       -2.47225125       2.49868815       2.49572884
C       -1.36712411       3.04393306       1.84222262
C       -0.57143533       2.23463344       1.03174597
C       -0.88213624       0.88213624       0.88213624
C       -1.98996011       0.32797741       1.52353661
C      -14.00585530      -3.88189279       1.31752978
O      -14.39478216      -3.86278364       2.68673305
C      -14.51622674      -5.07891849       3.30979985
C      -13.76390795      -6.20769451       2.96502950
C      -13.91982534      -7.40445859       3.67148003
C      -14.82305140      -7.47715455       4.72828096
Cl     -15.00577950      -8.95190046       5.59422164
C      -15.57274797      -6.36285553       5.09199777
C      -15.41268961      -5.16619082       4.38755082
Br     -16.46086232      -3.67438217       4.92477995
H      -12.40232860      -2.45031612       2.66644526
H      -10.71519952      -1.05910500       3.07960539
H       -8.99909940       0.67207705       2.96796238
H       -6.64029241       1.32813231       2.82286158
H       -5.54194401      -2.74805251       1.92002774
H       -7.93395992      -3.40480660       2.01491275
H       -3.09380920       3.13595190       3.12319533
H       -1.13031121       4.09877516       1.96123912
H        0.28681280       2.66650323       0.52241281
H       -2.22193732      -0.72609740       1.39699978
H      -14.43726691      -4.73776308       0.78369399
H      -14.42294225      -2.98104828       0.85178407
H      -13.03138522      -6.19334037       2.16268595
H      -13.32529264      -8.27174233       3.39314251
H      -16.27398979      -6.42734018       5.91942831
O       12.00576889       4.35636364       0.03421570
C       12.55248833       3.69620762       0.91295082
N       11.91875000       2.82620051       1.78722158
N       10.56700279       2.67012006       1.73038801
C       10.10012462       1.66081357       2.39122907
C        8.66134898       1.34001125       2.39700528
C        8.28286083       0.02104103       2.66060245
C        6.93573290      -0.33556704       2.60327717
C        5.97313893       0.63710826       2.32428072
C        6.34622465       1.95729773       2.06660966
C        7.69825228       2.31024894       2.09905215
O        4.61312673       0.31585097       2.14731179
C        4.04043892      -0.64888491       2.95925026
O        4.49350882      -1.12367418       3.98849127
C        2.80694543      -1.14968821       2.30820103
C        2.47221969      -2.49840790       2.49604066
C        1.35303575      -3.03810137       1.86214269
C        0.55733102      -2.22897784       1.05150588
C        0.88213624      -0.88213624       0.88213624
C        2.00397724      -0.33370484       1.50379204
C       14.06531817       3.72992376       1.10609788
O       14.47028560       3.72230947       2.47075544
C       14.61346477       4.94416516       3.07780848
C       13.87043811       6.07768887       2.72849371
C       14.04885098       7.28074780       3.41874360
C       14.96540307       7.35511570       4.46389043
Cl      15.17579832       8.83767649       5.30997885
C       15.70620425       6.23632137       4.83200733
C       15.52367604       5.03343476       4.14380833
Br      16.56053291       3.53566995       4.68639714
H       12.46123238       2.33355043       2.49077579
H       10.76287765       0.96751112       2.94033337
H        9.02529599      -0.74428778       2.86955506
H        6.65736294      -1.37384420       2.76007915
H        5.59642126       2.70422546       1.82172344
H        7.99696825       3.33349328       1.88059111
H        3.09366306      -3.13559984       3.12369353
H        1.10524961      -4.08857073       1.99650514
H       -0.31195465      -2.65655656       0.55750133
H        2.24682968       0.71596640       1.36197642
H       14.50038752       4.57424353       0.55705383
H       14.46618393       2.81874819       0.64624230
H       13.12828559       6.06261718       1.93506239
H       13.46129994       8.15171773       3.13711061
H       16.41796977       6.30218489       5.65029305
