182
Properties=species:S:1:pos:R:3 pbc="F F F"
C        1.78887015       1.78887015      -1.78887015
C        1.27376603       2.40250934      -2.92004555
N        2.00133319       3.20569228      -3.73255884
C        3.30431525       3.39825202      -3.39646518
C        3.91280267       2.81353376      -2.29104500
C        3.12459078       1.99955064      -1.46739065
C        5.31450333       3.06956576      -1.89320389
O        5.62084537       2.98879564      -0.70353901
N        6.29461646       3.36554976      -2.81876407
N        6.14365647       3.30622414      -4.17200322
C        7.26160371       3.36592724      -4.82732702
C        7.33456466       3.32707612      -6.30056101
C        6.20527397       3.54075423      -7.09600704
C        6.31409480       3.48746772      -8.49103087
C        7.55198203       3.22203736      -9.07437781
C        8.68021926       3.00082268      -8.28105561
C        8.57464794       3.06246785      -6.89123588
O        7.76760076       3.07718008     -10.46489238
C        6.92862151       3.57210309     -11.45283181
O        5.92501319       4.24949905     -11.30824201
C        7.41122876       3.09559722     -12.77528989
C        8.74992992       2.74202290     -13.00044260
C        9.15349197       2.29221182     -14.25989910
C        8.22488102       2.19315858     -15.29649133
C        6.89600572       2.55197731     -15.07277736
Br       5.64045848       2.41032714     -16.47911164
C        6.48397084       3.00848492     -13.82180326
H        0.23618208       2.27272723      -3.21401714
H        3.83689092       4.07766290      -4.05169410
H        3.55692205       1.54409135      -0.57948414
H        7.22164540       3.47417508      -2.41943815
H        8.23250908       3.42842179      -4.30103890
H        5.23885729       3.74896398      -6.64223591
H        5.42155853       3.64347113      -9.08932129
H        9.63652857       2.77081728      -8.74285604
H        9.45732841       2.88095307      -6.28360137
H        9.49072467       2.81858144     -12.20799930
H       10.19176946       2.01877357     -14.43451201
H        8.54605725       1.83772379     -16.27286931
H        5.44563917       3.28770488     -13.65366564
C       -1.78887015      -1.78887015      -1.78887015
C       -3.16989863      -1.67609730      -1.75032499
N       -4.00302129      -2.41936143      -2.51720159
C       -3.42411188      -3.31787320      -3.35704736
C       -2.05053758      -3.51277464      -3.45406920
C       -1.22085092      -2.71632961      -2.65435154
C       -1.41874078      -4.44899932      -4.40953288
O       -0.28568598      -4.20364349      -4.82385054
N       -2.04875534      -5.60423991      -4.82593505
N       -3.21288585      -6.09472054      -4.31427743
C       -3.46883252      -7.31555549      -4.67046997
C       -4.67846775      -8.04308003      -4.24065401
C       -5.77638006      -7.37738073      -3.68827445
C       -6.90289230      -8.10475323      -3.28494786
C       -6.91848797      -9.48997840      -3.43993083
C       -5.81933435     -10.15792477      -3.98483843
C       -4.69999701      -9.43318114      -4.39517352
O       -7.96938395     -10.33251353      -3.00777574
C       -9.27070706      -9.91631836      -2.76653098
O       -9.74155423      -8.80441945      -2.93678056
C      -10.03882877     -11.05146612      -2.19182098
C       -9.68242505     -12.38868386      -2.42128651
C      -10.43206221     -13.42109953      -1.85244116
C      -11.53688852     -13.12366547      -1.05397695
C      -11.89397735     -11.79388321      -0.83289983
Br     -13.38840672     -11.39610916       0.25461862
C      -11.15697018     -10.75610555      -1.40118329
H       -3.66366777      -0.96543239      -1.09382629
H       -4.12582392      -3.86214106      -3.97828294
H       -0.14030644      -2.82093763      -2.71925348
H       -1.48854669      -6.18060873      -5.44610321
H       -2.76778248      -7.88614531      -5.30804198
H       -5.76603902      -6.29638099      -3.56763717
H       -7.73916057      -7.56887013      -2.84632026
H       -5.82974201     -11.24027921      -4.08018066
H       -3.84735250      -9.96399785      -4.81053250
H       -8.82918552     -12.64199873      -3.04612116
H      -10.15598058     -14.45799113      -2.03108334
H      -12.11262411     -13.93304106      -0.61098518
H      -11.44112175      -9.72035945      -1.22552850
C       -1.78887015       1.78887015       1.78887015
C       -2.81876667       2.53715720       1.24039705
N       -3.64211649       3.32593323       1.97153459
C       -3.41923018       3.36798649       3.31181577
C       -2.40252092       2.66532917       3.94953133
C       -1.57968729       1.85025493       3.16158985
C       -2.19688886       2.66582381       5.41456030
O       -1.68965062       1.67778371       5.94574568
N       -2.52789956       3.75224720       6.19878352
N       -2.91984259       4.97094191       5.73109933
C       -2.91851357       5.90364932       6.63269509
C       -3.31463256       7.29679696       6.35077226
C       -4.01321583       7.63925182       5.18956759
C       -4.36394988       8.97432373       4.95431978
C       -4.01262651       9.95151532       5.88425538
C       -3.30796388       9.61242983       7.04170383
C       -2.96579819       8.28124388       7.28130959
O       -4.25285964      11.33592984       5.72088373
C       -5.20357639      11.88033952       4.86964049
O       -6.01573710      11.28575845       4.18125871
C       -5.05529481      13.35914704       4.86767401
C       -4.49027561      14.05608749       5.94603232
C       -4.36559364      15.44645558       5.89355367
C       -4.80252838      16.14463271       4.76736984
C       -5.37058309      15.45081382       3.69936349
Br      -5.95566801      16.40099513       2.17323412
C       -5.50598111      14.06417266       3.74410525
H       -3.02605404       2.52261970       0.17425271
H       -4.12491745       3.98031419       3.86101628
H       -0.78909535       1.26541823       3.62598396
H       -2.29429104       3.64055519       7.18041240
H       -2.59353053       5.69851355       7.66992569
H       -4.28890915       6.87765593       4.46349210
H       -4.89491342       9.21983663       4.03960091
H       -3.01688175      10.38336389       7.74995624
H       -2.41066097       8.02993521       8.18128667
H       -4.14994488      13.53157311       6.83578742
H       -3.92809845      15.98680049       6.73015610
H       -4.69774730      17.22657317       4.73232988
H       -5.95080638      13.52847305       2.90773027
C        1.78887015      -1.78887015       1.78887015
C        1.31191278      -2.29753233       2.98687581
N        2.04038786      -3.09522936       3.80396708
C        3.30457334      -3.39225343       3.40220568
C        3.87445134      -2.91689665       2.22603343
C        3.08550796      -2.10517942       1.40084468
C        5.22907336      -3.28732737       1.76087224
O        5.46177412      -3.29940760       0.55199830
N        6.24739499      -3.58936673       2.64216857
N        6.18864327      -3.43786801       3.99537255
C        7.34110069      -3.53002341       4.58373387
C        7.51193000      -3.40615285       6.04411893
C        6.42581585      -3.49700495       6.91921445
C        6.62815810      -3.36586159       8.29857370
C        7.91524215      -3.14637036       8.78678469
C        9.00090512      -3.04781360       7.91337884
C        8.80162762      -3.18717596       6.53954809
O        8.22925257      -2.93124016      10.14918048
C        7.42764323      -3.30934354      11.21656962
O        6.37728800      -3.92761221      11.17785404
C        8.02339548      -2.78539917      12.47332121
C        9.39298227      -2.50653216      12.59288098
C        9.90427867      -2.00788207      13.79344215
C        9.05281112      -1.78557853      14.87614129
C        7.69278449      -2.07022011      14.75775579
Br       6.54232329      -1.76166536      16.22590861
C        7.17319182      -2.57447143      13.56659577
H        0.30549768      -2.08286252       3.33456625
H        3.83616176      -4.06359320       4.06649295
H        3.48618488      -1.73383734       0.46047533
H        7.13813685      -3.78220614       2.19491563
H        8.27010481      -3.68751771       4.00434725
H        5.42103803      -3.66924562       6.53977352
H        5.76855642      -3.42669553       8.95909900
H        9.99746817      -2.85271687       8.30001684
H        9.65236230      -3.10086180       5.86865875
H       10.07462914      -2.67931756      11.76335871
H       10.96646167      -1.79238335      13.88621003
H        9.45788433      -1.39284964      15.80591639
H        6.11102299      -2.79533010      13.48065660
C       -0.00445707       0.01189536      -1.78238275
H       -0.66409135       0.67374010      -2.43557963
H        0.65740317      -0.63156657      -2.45157240
C       -0.90989263      -0.90692880      -0.91072765
C        0.90977584       0.90977584      -0.90977584
C       -0.00465871       1.77757030       0.00794375
H       -0.66225468       2.44313916      -0.64384735
H        0.64322798       2.43503045       0.67728295
C       -1.78241447       0.00034974      -0.00472694
H       -2.45427497      -0.65498947       0.64260836
H       -2.43311707       0.67328779      -0.65473579
C       -0.91132561       0.90220522       0.91563759
C       -0.01476271      -0.02253852       1.78660255
H       -0.67934791      -0.69751639       2.42135241
H        0.63392994       0.61504881       2.47327442
C        0.01484550      -1.77751727      -0.01636693
H        0.67870853      -2.42144646      -0.68295456
H       -0.62264859      -2.45592969       0.64226336
C        1.78714474       0.01002794       0.00389507
H        2.44202412       0.67113390       0.66197326
H        2.45385902      -0.65136977      -0.64189061
C        0.91606151      -0.90478549       0.90901405
