161
Properties=species:S:1:pos:R:3 pbc="F F F"
C        0.00000000       0.00000000       0.00000000
C        0.87896612       0.87896612      -0.87896612
C        0.36386201       1.49260531      -2.01014153
N        1.09142917       2.29578825      -2.82265481
C        2.39441122       2.48834799      -2.48656116
C        3.00289864       1.90362974      -1.38114097
C        2.21468675       1.08964661      -0.55748662
C        4.40459930       2.15966173      -0.98329987
O        4.71094134       2.07889162       0.20636502
N        5.38471244       2.45564573      -1.90886005
N        5.23375245       2.39632011      -3.26209919
C        6.35169969       2.45602321      -3.91742299
C        6.42466063       2.41717209      -5.39065698
C        5.29536994       2.63085021      -6.18610302
C        5.40419077       2.57756370      -7.58112685
C        6.64207801       2.31213334      -8.16447378
C        7.77031524       2.09091865      -7.37115159
C        7.66474391       2.15256383      -5.98133186
O        6.85769673       2.16727606      -9.55498835
C        6.01871748       2.66219906     -10.54292778
O        5.01510916       3.33959502     -10.39833799
C        6.50132473       2.18569319     -11.86538587
C        7.84002589       1.83211888     -12.09053857
C        8.24358795       1.38230780     -13.34999508
C        7.31497700       1.28325456     -14.38658731
C        5.98610170       1.64207329     -14.16287334
Br       4.73055446       1.50042312     -15.56920761
C        5.57406682       2.09858089     -12.91189924
H       -0.67372194       1.36282320      -2.30411311
H        2.92698690       3.16775887      -3.14179007
H        2.64701803       0.63418733       0.33041989
H        6.31174137       2.56427105      -1.50953413
H        7.32260506       2.51851776      -3.39113488
H        4.32895326       2.83905995      -5.73233189
H        4.51165450       2.73356711      -8.17941727
H        8.72662454       1.86091325      -7.83295201
H        8.54742438       1.97104905      -5.37369735
H        8.58082065       1.90867742     -11.29809527
H        9.28186544       1.10886955     -13.52460799
H        7.63615323       0.92781977     -15.36296529
H        4.53573515       2.37780086     -12.74376162
C       -0.87896612      -0.87896612      -0.87896612
C       -2.25935429      -0.75556621      -0.85168835
N       -3.09229504      -1.49833555      -1.61924164
C       -2.51390847      -2.40746914      -2.44794275
C       -1.14115584      -2.61337842      -2.53313510
C       -0.31149556      -1.81715764      -1.73316679
C       -0.50930357      -3.56149125      -3.47676608
O        0.62864139      -3.32776106      -3.88434828
N       -1.14488100      -4.71509034      -3.88924687
N       -2.31647852      -5.19296428      -3.38272896
C       -2.57895506      -6.41450110      -3.73168973
C       -3.79723042      -7.12968231      -3.30557698
C       -4.89419442      -6.45163030      -2.76649845
C       -6.02915196      -7.16748186      -2.36624750
C       -6.05403837      -8.55368139      -2.51096537
C       -4.95590606      -9.23393326      -3.04254616
C       -3.82809036      -8.52070957      -3.44983967
O       -7.11446880      -9.38503783      -2.08045451
C       -8.41438463      -8.95730018      -1.85215951
O       -8.87554029      -7.84322254      -2.03427934
C       -9.19533230     -10.08229478      -1.27477671
C       -8.84732030     -11.42383752      -1.49152552
C       -9.60896536     -12.44628852      -0.92063694
C      -10.71746467     -12.13457231      -0.13278189
C      -11.06615502     -10.80052279       0.07562949
Br     -12.56564299     -10.38337342       1.14883123
C      -10.31710298      -9.77261128      -0.49483269
H       -2.75264972      -0.03628995      -0.20427471
H       -3.21503520      -2.95113866      -3.07036199
H        0.76868458      -1.93034172      -1.78912833
H       -0.58440857      -5.30030154      -4.50083645
H       -1.87747525      -6.99511972      -4.35966273
H       -4.87660067      -5.36985881      -2.65388562
H       -6.86461433      -6.62205650      -1.93796805
H       -4.97376609     -10.31686800      -3.12985572
H       -2.97638870      -9.06101590      -3.85476618
H       -7.99136097     -11.68824277      -2.10798960
H       -9.33938540     -13.48653707      -1.08942050
H      -11.30259251     -12.93624783       0.31190205
H      -10.59473870      -8.73347027      -0.32908865
C       -0.87896612       0.87896612       0.87896612
C       -1.95942646       1.56306259       0.34411980
N       -2.78498814       2.34811770       1.07676640
C       -2.51145337       2.45376582       2.40410119
C       -1.44251681       1.81836170       3.02679084
C       -0.61862822       1.00470401       2.23848777
C       -1.17959838       1.88694872       4.48101379
O       -0.61181339       0.94221521       5.02943934
N       -1.52371773       2.99071507       5.23478541
N       -1.98334216       4.17286778       4.73596181
C       -1.98474467       5.14104866       5.59935256
C       -2.44837499       6.50481666       5.27929806
C       -3.20554182       6.77167519       4.13510616
C       -3.61964551       8.08115842       3.86207739
C       -3.27232551       9.10868220       4.73767743
C       -2.50937491       8.84527294       5.87773763
C       -2.10381345       7.53951078       6.15531536
O       -3.57529972      10.47471966       4.52994176
C       -4.58026976      10.94598244       3.69759213
O       -5.39385042      10.29221427       3.06697749
C       -4.49287221      12.42815651       3.63137508
C       -3.91488368      13.19036780       4.65743186
C       -3.84941275      14.58124788       4.54523020
C       -4.35854480      15.21498291       3.41129116
C       -4.93928450      14.45619268       2.39557113
Br      -5.62238395      15.31931599       0.85848524
C       -5.01591123      13.06829506       2.50034066
H       -2.20772908       1.49672732      -0.71124202
H       -3.21947357       3.05983498       2.95722730
H        0.21291143       0.47093554       2.69276136
H       -1.24729155       2.92859862       6.20965638
H       -1.61107676       4.99151148       6.62966945
H       -3.47816351       5.97072413       3.45145746
H       -4.19579524       8.26792139       2.96092226
H       -2.22247291       9.65542256       6.54259433
H       -1.50387166       7.34730868       7.04099043
H       -3.51861421      12.71653117       5.55244796
H       -3.40184013      15.17219765       5.34130520
H       -4.29962431      16.29786442       3.32944955
H       -5.47098341      12.48170401       1.70461020
C        0.87896612      -0.87896612       0.87896612
C        0.42906358      -1.32603808       2.11150718
N        1.15835563      -2.12045364       2.93106297
C        2.39515868      -2.47871870       2.49544299
C        2.93747351      -2.06759002       1.28260582
C        2.14799669      -1.25720752       0.45661578
C        4.25958398      -2.50481964       0.78315728
O        4.44641652      -2.56906411      -0.43201268
N        5.29856289      -2.81275235       1.63790297
N        5.29584877      -2.61057649       2.98574650
C        6.46540102      -2.72445377       3.53529111
C        6.69496563      -2.55458156       4.98294253
C        5.63970571      -2.57328702       5.89933044
C        5.89797831      -2.40024329       7.26465971
C        7.20945107      -2.21152130       7.69771277
C        8.26460069      -2.18504389       6.78274090
C        8.00929935      -2.36621105       5.42312919
O        7.58163035      -1.95938196       9.03894883
C        6.80733468      -2.26865276      10.14785689
O        5.73470168      -2.84827898      10.17006152
C        7.46804487      -1.72243147      11.36192745
C        8.85028602      -1.49075691      11.42164042
C        9.42364657      -0.96866533      12.58357892
C        8.62173369      -0.67592481      13.68716037
C        7.24887591      -0.91368075      13.62849166
Br       6.16586163      -0.50977666      15.12454690
C        6.66737961      -1.44071812      12.47644921
H       -0.55529700      -1.06158315       2.48692824
H        2.92667181      -3.14509607       3.16476797
H        2.52639677      -0.93515417      -0.51076546
H        6.16447511      -3.05467104       1.16640040
H        7.36586393      -2.93725714       2.92913663
H        4.61591941      -2.72144543       5.56298026
H        5.06199758      -2.40514563       7.95749568
H        9.28127425      -2.01349461       7.12572095
H        8.83695495      -2.33590469       4.71931113
H        9.49383794      -1.71859815      10.57515725
H       10.49561732      -0.78976411      12.62996154
H        9.07509591      -0.26539008      14.58645229
H        5.59548503      -1.62472691      12.43708568
