169
Properties=species:S:1:pos:R:3 pbc="F F F"
C        0.00000000       0.00000000       0.00000000
C        0.87896612       0.87896612      -0.87896612
C        0.36386201       1.49260531      -2.01014153
N        1.09142917       2.29578825      -2.82265481
C        2.39441122       2.48834799      -2.48656116
C        3.00289864       1.90362974      -1.38114097
C        2.21468675       1.08964661      -0.55748662
C        4.40459930       2.15966173      -0.98329987
O        4.71094134       2.07889162       0.20636502
N        5.38471244       2.45564573      -1.90886005
N        5.23375245       2.39632011      -3.26209919
C        6.35169969       2.45602321      -3.91742299
C        6.42466063       2.41717209      -5.39065698
C        5.29536994       2.63085021      -6.18610302
C        5.40419077       2.57756370      -7.58112685
C        6.64207801       2.31213334      -8.16447378
C        7.77031524       2.09091865      -7.37115159
C        7.66474391       2.15256383      -5.98133186
O        6.85769673       2.16727606      -9.55498835
C        6.01871748       2.66219906     -10.54292778
O        5.01510916       3.33959502     -10.39833799
C        6.50132473       2.18569319     -11.86538587
C        7.84002589       1.83211888     -12.09053857
C        8.24358795       1.38230780     -13.34999508
C        7.31497700       1.28325456     -14.38658731
C        5.98610170       1.64207329     -14.16287334
C        5.57406682       2.09858089     -12.91189924
H       -0.67372194       1.36282320      -2.30411311
H        2.92698690       3.16775887      -3.14179007
H        2.64701803       0.63418733       0.33041989
H        6.31174137       2.56427105      -1.50953413
H        7.32260506       2.51851776      -3.39113488
H        4.32895326       2.83905995      -5.73233189
H        4.51165450       2.73356711      -8.17941727
H        8.72662454       1.86091325      -7.83295201
H        8.54742438       1.97104905      -5.37369735
H        8.58082065       1.90867742     -11.29809527
H        9.28186544       1.10886955     -13.52460799
H        7.63615323       0.92781977     -15.36296529
H        4.53573515       2.37780086     -12.74376162
C        5.02978066       1.53418166     -15.23404534
C        4.22886179       1.44382242     -16.13115190
Br       2.93384371       1.29771917     -17.58169732
C       -0.87896612      -0.87896612      -0.87896612
C       -2.25012993      -0.93343608      -0.68304283
N       -3.08490254      -1.68475515      -1.44021455
C       -2.51747751      -2.41631337      -2.43552949
C       -1.15192464      -2.43770020      -2.69804451
C       -0.32226760      -1.63770327      -1.90184912
C       -0.54186551      -3.18819688      -3.81749851
O        0.50287026      -2.76974420      -4.31659400
N       -1.09184232      -4.35928429      -4.29809161
N       -2.13018954      -5.03365192      -3.72833029
C       -2.29682203      -6.23199814      -4.19632572
C       -3.36487010      -7.13722389      -3.73039572
C       -4.45414531      -6.66628462      -2.99189324
C       -5.44322272      -7.55884692      -2.56081168
C       -5.33169885      -8.91245468      -2.87453160
C       -4.24008699      -9.38625026      -3.60604823
C       -3.25864111      -8.49639074      -4.04360775
O       -6.23066022      -9.91290868      -2.43639224
C       -7.53113975      -9.67961813      -2.01308644
O       -8.13253982      -8.61886937      -2.00163298
C       -8.10349115     -10.95084913      -1.49806351
C       -7.63834489     -12.20566063      -1.91867783
C       -8.20388834     -13.37265611      -1.39934637
C       -9.23258891     -13.29199031      -0.46023964
C       -9.69861581     -12.04372360      -0.04870891
C       -9.14604117     -10.87297137      -0.56553441
H       -2.73527952      -0.35821222       0.10027736
H       -3.22625093      -2.97096641      -3.03931852
H        0.74820272      -1.60761481      -2.09137339
H       -0.55088794      -4.79790170      -5.03675691
H       -1.61942065      -6.64658425      -4.96625280
H       -4.54301896      -5.61014050      -2.74718565
H       -6.27383588      -7.17354198      -1.97726102
H       -4.14817361     -10.44638937      -3.82592682
H       -2.40965962      -8.87721064      -4.60530051
H       -6.84238304     -12.29041732      -2.65479298
H       -7.84356671     -14.34560699      -1.72616928
H       -9.66449740     -14.20516093      -0.05727995
H       -9.51456250      -9.90178436      -0.24095076
C      -10.75742682     -11.96463290       0.92405206
C      -11.64418104     -11.89839443       1.73873937
Br     -13.07798762     -11.79129243       3.05601985
C       -0.87896612       0.87896612       0.87896612
C       -1.37361899       2.08512679       0.40786307
N       -2.17057365       2.90279284       1.13650575
C       -2.48153070       2.49303071       2.39475896
C       -2.02077905       1.30820808       2.95868221
C       -1.20936508       0.48283073       2.16962418
C       -2.40642430       0.83491399       4.30622261
O       -2.43051795      -0.37571085       4.52866085
N       -2.70965414       1.71020835       5.32935573
N       -2.54641041       3.06253529       5.28322605
C       -2.64333476       3.64203722       6.43977392
C       -2.50875201       5.09985887       6.62387883
C       -2.58319904       5.98469531       5.54442883
C       -2.44228284       7.36117349       5.75942498
C       -2.22954576       7.83679605       7.05234332
C       -2.14737675       6.95358824       8.13142048
C       -2.29649109       5.58268165       7.91946686
O       -2.00572697       9.19467768       7.37955649
C       -2.36819254      10.27183725       6.58381453
O       -2.97792492      10.24705526       5.52806199
C       -1.83882500      11.51914538       7.19443342
C       -1.57047693      11.62495748       8.56724894
C       -1.06616074      12.81699432       9.09273576
C       -0.82771547      13.90483873       8.25226466
C       -1.10190817      13.80016971       6.88897044
C       -1.61167732      12.61764942       6.35522020
H       -1.14762386       2.43936753      -0.59377701
H       -3.15175628       3.15848160       2.92629796
H       -0.84923825      -0.46392427       2.56547150
H       -2.91367823       1.25719158       6.21467674
H       -2.81343706       3.05628091       7.36253972
H       -2.75015291       5.61508907       4.53510313
H       -2.49040070       8.02931755       4.90492064
H       -1.95743958       7.33026761       9.13278262
H       -2.22290663       4.90403424       8.76522991
H       -1.75587511      10.79127005       9.24044819
H       -0.85881957      12.89910671      10.15741669
H       -0.43067529      14.82788146       8.66838153
H       -1.82432135      12.54241013       5.29056614
C       -0.85024419      14.92367004       6.02409343
C       -0.63947560      15.86460157       5.29975893
Br      -0.29868062      17.38600827       4.12857131
C        0.87896612      -0.87896612       0.87896612
C        1.79537130      -0.31709092       1.75414663
N        2.59419245      -1.04533189       2.57034790
C        2.46991875      -2.39725816       2.50214346
C        1.59080989      -3.05122284       1.64563662
C        0.77200026      -2.26375655       0.82606319
C        1.41448878      -4.51971312       1.61335900
O        0.32404735      -4.98202850       1.27739209
N        2.44432927      -5.38646059       1.91842835
N        3.74251238      -5.02579358       2.12386580
C        4.56952434      -6.02520746       2.13041409
C        6.02112057      -5.86792511       2.34344404
C        6.56196794      -4.68809353       2.86226170
C        7.94604144      -4.57487196       3.04196792
C        8.77321188      -5.64397496       2.70149830
C        8.23537515      -6.82112375       2.17588658
C        6.85568450      -6.93820901       2.00474609
O       10.18563411      -5.61902619       2.77530084
C       10.92302205      -4.74259112       3.55823116
O       10.50230053      -3.90861925       4.34212240
C       12.36652314      -4.92859699       3.25728366
C       12.87648758      -6.13389927       2.75229650
C       14.24066044      -6.25723831       2.47799208
C       15.09867760      -5.18077977       2.70536150
C       14.59107043      -3.98574936       3.21422853
C       13.23263554      -3.85408557       3.49782583
H        1.91640558       0.75923897       1.83604777
H        3.09972057      -2.93749741       3.19931787
H        0.05371391      -2.73668917       0.16038239
H        2.20436680      -6.36733914       1.81384061
H        4.22081164      -7.05963585       1.95181021
H        5.91765043      -3.85337468       3.12931999
H        8.34587839      -3.64466845       3.43409205
H        8.88898016      -7.64093351       1.89057614
H        6.44884149      -7.85569803       1.58763126
H       12.22592454      -6.98701928       2.57464953
H       14.63605106      -7.19219557       2.08709635
H       16.15872422      -5.28329339       2.48492068
H       12.84266420      -2.91913012       3.89550330
C       15.47912230      -2.87557564       3.44330972
C       16.22286575      -1.94580515       3.63516521
Br      17.42543599      -0.44244490       3.94537931
