97
Properties=species:S:1:pos:R:3 pbc="F F F"
C        0.00000000       0.00000000       0.00000000
C        0.88183311       0.88183311      -0.88183311
C        0.53769241       1.08406428      -2.21943777
C        1.34301715       1.88798818      -3.02846911
C        2.49340430       2.47276716      -2.48895387
C        2.83002882       2.28529465      -1.14453963
C        2.02046620       1.48085719      -0.34050784
S        3.51986327       3.49975964      -3.51763858
O        2.68275250       4.02663954      -4.57990276
O        4.25062488       4.39993614      -2.64376453
C        4.70449975       2.40310048      -4.26663971
C        4.39911793       1.78705771      -5.48471673
C        5.33200778       0.93220518      -6.07446012
C        6.56040990       0.70971400      -5.44997060
Br       7.82132675      -0.44792615      -6.25224209
C        6.86994281       1.33791966      -4.24242056
C        5.94094713       2.19357114      -3.64751786
H       -0.35558031       0.62578277      -2.63691562
H        1.06461931       2.05410964      -4.06697352
H        3.71000777       2.76047753      -0.71590773
H        2.28099167       1.33140196       0.70476473
H        3.44834884       1.96896884      -5.98137029
H        5.09654772       0.45046644      -7.02058643
H        7.83159992       1.17206202      -3.76260493
H        6.19092217       2.69139597      -2.71288634
C       -0.88183311      -0.88183311      -0.88183311
C       -2.18085769      -0.47259800      -1.18773877
C       -2.98995803      -1.27761552      -1.99190089
C       -2.49019071      -2.49237022      -2.47256440
C       -1.18303685      -2.89544754      -2.18137871
C       -0.37868138      -2.08588005      -1.37726980
S       -3.51883557      -3.51873112      -3.49969480
O       -4.49336333      -2.65505256      -4.14087890
O       -2.64093066      -4.35502140      -4.29837349
C       -4.40435111      -4.58572604      -2.38416279
C       -5.63511348      -4.17073681      -1.86504208
C       -6.33184326      -5.01154066      -0.99528918
C       -5.80005514      -6.25829946      -0.66173989
Br      -6.74704292      -7.39430719       0.51570742
C       -4.57932224      -6.67756640      -1.19339438
C       -3.87764995      -5.84099749      -2.06338869
H       -2.56772527       0.47083410      -0.81022691
H       -3.99726583      -0.94929349      -2.23914315
H       -0.78322185      -3.82735739      -2.57581380
H        0.63747822      -2.39784420      -1.14726291
H       -6.05939370      -3.20558318      -2.13371109
H       -7.28812351      -4.69073454      -0.58874255
H       -4.17155233      -7.65358095      -0.94113360
H       -2.93278286      -6.17659592      -2.48582570
C       -0.88183311       0.88183311       0.88183311
C       -2.22667565       0.55349518       1.06102362
C       -3.03568693       1.35889028       1.86489723
C       -2.48866934       2.49362424       2.47283175
C       -1.13732510       2.81415194       2.30838606
C       -0.33336314       2.00459590       1.50387221
S       -3.51736101       3.52010671       3.49979377
O       -4.59812788       2.69065641       4.00051050
O       -2.64613228       4.22636906       4.42182420
C       -4.23489902       4.72983426       2.40950665
C       -5.44839292       4.44975568       1.77274378
C       -6.01348050       5.40228388       0.92290871
C       -5.36927784       6.62485355       0.72596311
Br      -6.13819254       7.91241544      -0.42496528
C       -4.16642051       6.90906212       1.37480039
C       -3.59613253       5.96034512       2.22555848
H       -2.64992122      -0.32758566       0.58478252
H       -4.08008964       1.09263943       2.01297340
H       -0.70334262       3.68155677       2.80149366
H        0.71733224       2.25265685       1.37230429
H       -5.96043590       3.50355244       1.93469962
H       -6.95597843       5.18652158       0.42510058
H       -3.67128575       7.86616520       1.22881592
H       -2.66515169       6.19055920       2.73949359
C        0.88183311      -0.88183311       0.88183311
C        0.34695352      -1.45991333       2.03432761
C        1.15123505      -2.26479062       2.84344877
C        2.48932085      -2.47269350       2.49311099
C        3.02187466      -1.90847194       1.32951650
C        2.21248047      -1.10511084       0.52423993
S        3.51548205      -3.50019250       3.52158693
O        2.64152033      -4.41571581       4.23205865
O        4.59337661      -4.00860583       2.69234311
C        4.23795618      -2.40885790       4.72742585
C        3.56718464      -2.17194886       5.93175888
C        4.13823624      -1.32084819       6.87958867
C        5.37383029      -0.72499705       6.62126716
Br       6.14416559       0.42623280       7.90770990
C        6.04945000      -0.97520884       5.42562418
C        5.48328261      -1.82509251       4.47366101
H       -0.69279344      -1.29412910       2.30578242
H        0.72746542      -2.72442286       3.73381420
H        4.05513796      -2.09022009       1.04103499
H        2.62451325      -0.66314215      -0.38002651
H        2.61062683      -2.64555169       6.14250945
H        3.61810719      -1.13341936       7.81607405
H        7.01699382      -0.51883411       5.23043894
H        6.01887938      -2.02780997       3.54851513
