105
Properties=species:S:1:pos:R:3 pbc="F F F"
C        0.00000000       0.00000000       0.00000000
C        0.88183311       0.88183311      -0.88183311
C        0.53769241       1.08406428      -2.21943777
C        1.34301715       1.88798818      -3.02846911
C        2.49340430       2.47276716      -2.48895387
C        2.83002882       2.28529465      -1.14453963
C        2.02046620       1.48085719      -0.34050784
S        3.51986327       3.49975964      -3.51763858
O        2.68275250       4.02663954      -4.57990276
O        4.25062488       4.39993614      -2.64376453
C        4.70449975       2.40310048      -4.26663971
C        4.39911793       1.78705771      -5.48471673
C        5.33200778       0.93220518      -6.07446012
C        6.56040990       0.70971400      -5.44997060
C        6.86994281       1.33791966      -4.24242056
C        5.94094713       2.19357114      -3.64751786
H       -0.35558031       0.62578277      -2.63691562
H        1.06461931       2.05410964      -4.06697352
H        3.71000777       2.76047753      -0.71590773
H        2.28099167       1.33140196       0.70476473
H        3.44834884       1.96896884      -5.98137029
H        5.09654772       0.45046644      -7.02058643
H        7.83159992       1.17206202      -3.76260493
H        6.19092217       2.69139597      -2.71288634
C        7.52089585      -0.17210235      -6.06108979
C        8.32530283      -0.91062354      -6.57290212
Br       9.62596088      -2.10474984      -7.40045937
C       -0.88183311      -0.88183311      -0.88183311
C       -2.25925422      -0.92271877      -0.65922146
C       -3.06758367      -1.72948690      -1.46240386
C       -2.48303122      -2.49676711      -2.47532700
C       -1.10549965      -2.44349370      -2.71086974
C       -0.30260768      -1.63443743      -1.90478612
S       -3.51171115      -3.52377894      -3.50177140
O       -4.84534995      -2.95098582      -3.49295902
O       -2.80922275      -3.72946096      -4.75564184
C       -3.60179016      -5.09722532      -2.67522446
C       -4.61173917      -5.32456565      -1.73458756
C       -4.68524842      -6.56161379      -1.09181088
C       -3.75956512      -7.55962974      -1.40089963
C       -2.76209471      -7.33654393      -2.35164437
C       -2.68316516      -6.10135236      -2.99751862
H       -2.71053839      -0.32744621       0.13086652
H       -4.14232240      -1.74877848      -1.29460159
H       -0.65205417      -3.01922702      -3.51511185
H        0.76926045      -1.59275363      -2.08413572
H       -5.34345985      -4.55393014      -1.50129798
H       -5.46833561      -6.74054745      -0.35871754
H       -2.04833264      -8.11869164      -2.59924259
H       -1.91227492      -5.93565947      -3.74727009
C       -3.83837721      -8.83484547      -0.73666061
C       -3.90438234      -9.90283865      -0.18036042
Br      -4.01110704     -11.62969329       0.71912993
C       -0.88183311       0.88183311       0.88183311
C       -1.88866714       0.29914939       1.65337793
C       -2.69765601       1.10297250       2.45884593
C       -2.49488699       2.48684637       2.47339197
C       -1.47529445       3.07017201       1.71439664
C       -0.66929768       2.26107168       0.91146188
S       -3.52318389       3.51291861       3.50115898
O       -4.01502678       2.68619536       4.58807264
O       -2.78287356       4.73004027       3.78141172
C       -4.92179440       3.95777501       2.49467052
C       -6.05254818       3.13451519       2.48382901
C       -7.15155485       3.48813855       1.69897969
C       -7.11522701       4.66134826       0.94351923
C       -5.99218062       5.49008011       0.96802229
C       -4.88983587       5.14157745       1.75062282
H       -2.04593138      -0.77661602       1.63780272
H       -3.47275250       0.64403001       3.06891996
H       -1.29868070       4.14339106       1.74432128
H        0.12290274       2.71215374       0.31837790
H       -6.08993575       2.22659343       3.08215879
H       -8.03135889       2.84901782       1.68722389
H       -5.96960883       6.40925684       0.38740120
H       -4.02144798       5.79659766       1.77715883
C       -8.25067938       5.02376851       0.13543540
C       -9.20162075       5.32729546      -0.54133480
Br     -10.73921251       5.81807288      -1.63561498
C        0.88183311      -0.88183311       0.88183311
C        0.38254545      -1.36687106       2.09177795
C        1.18706710      -2.17148927       2.90091807
C        2.49041769      -2.47254179       2.49216585
C        2.98602637      -2.00178051       1.27205622
C        2.17654268      -1.19818243       0.46710613
S        3.51663777      -3.49991372       3.52071000
O        2.63651938      -4.32584161       4.32693379
O        4.51770444      -4.11142554       2.66519557
C        4.36268872      -2.38831283       4.62323838
C        3.77415622      -2.05041453       5.84632163
C        4.44197634      -1.18354135       6.71315540
C        5.69104134      -0.67259890       6.35645426
C        6.28418827      -1.02357039       5.14252436
C        5.62107031      -1.88972425       4.27124157
H       -0.63002902      -1.12875950       2.40838761
H        0.79013285      -2.55860996       3.83695967
H        3.99033167      -2.25634929       0.93971207
H        2.56005547      -0.82875230      -0.48117887
H        2.80711961      -2.45767447       6.13389388
H        3.98596235      -0.91767525       7.66396300
H        7.26213621      -0.63327640       4.87085427
H        6.09232970      -2.17109901       3.33177577
C        6.37773110       0.22085224       7.25300444
C        6.95283377       0.96911757       8.00386521
Br       7.88272616       2.17899933       9.21794358
