117
Properties=species:S:1:pos:R:3 pbc="F F F"
C        0.00000000       0.00000000       0.00000000
S        1.67361687       4.11682903      -5.28483247
C        3.14575938       3.81276781      -4.53832686
N        3.33375302       3.33092524      -3.27064813
C        2.47962884       2.51462710      -2.49934867
C        2.56186256       2.60341754      -1.10565693
C        1.75156303       1.79921245      -0.29681249
C        0.88146412       0.88146412      -0.88146412
C        0.81936291       0.75679502      -2.26604575
C        1.62123959       1.57068666      -3.07160753
N        4.25955784       4.20764365      -5.22891642
C        5.61962891       3.85372333      -5.11975012
C        6.50573783       4.51297916      -5.98466307
C        7.86633581       4.19341364      -6.00175447
C        8.34961167       3.20510040      -5.15096863
C        7.48317649       2.53595496      -4.29048574
C        6.11905129       2.85474902      -4.28092877
H        4.06770011       3.81358263      -2.76575813
H        3.23042919       3.31624575      -0.63079369
H        1.80472110       1.89789039       0.78468426
H        0.15933938       0.02988936      -2.73164470
H        1.58193662       1.42381645      -4.14739731
H        4.01759647       4.75255441      -6.05147105
H        6.14773751       5.28393209      -6.66377970
H        8.53174274       4.71277336      -6.68642667
H        7.85203485       1.74796653      -3.63802922
H        5.47508781       2.26300149      -3.64031679
C        9.74739536       2.85978396      -5.17457620
C       10.91803919       2.57058144      -5.19434754
Br      12.81087127       2.10296542      -5.22631613
S       -2.58883277      -2.66734299      -5.81910261
C       -3.57967098      -3.29735294      -4.61983012
N       -3.30602619      -3.34994602      -3.27935418
C       -2.47825252      -2.50328490      -2.51206719
C       -1.89060306      -3.02543854      -1.35489543
C       -1.07916832      -2.21984079      -0.54857886
C       -0.88146412      -0.88146412      -0.88146412
C       -1.49249733      -0.34090193      -2.00880443
C       -2.29250546      -1.15180769      -2.81922064
N       -4.71353597      -3.93055284      -5.05202910
C       -5.91314981      -4.28028932      -4.39966322
C       -6.85643454      -4.98168121      -5.16526431
C       -8.10352037      -5.32341390      -4.63456966
C       -8.41616999      -4.96061388      -3.32889684
C       -7.49436144      -4.25849711      -2.55675863
C       -6.24794343      -3.91230118      -3.09448446
H       -3.55327866      -4.23698773      -2.85677448
H       -2.02866520      -4.06780194      -1.08100150
H       -0.60542283      -2.64527209       0.33276769
H       -1.36157705       0.70671826      -2.26601465
H       -2.78951497      -0.69376017      -3.66987524
H       -4.72174254      -4.03763485      -6.06224455
H       -6.63551948      -5.26873817      -6.19119164
H       -8.82063134      -5.86021410      -5.25009732
H       -7.74149576      -3.95416763      -1.54236720
H       -5.59012830      -3.31130450      -2.47697329
C       -9.70508532      -5.29558162      -2.78108858
C      -10.78455191      -5.57611710      -2.32229917
Br     -12.52995809      -6.02971924      -1.58047549
S       -5.61201793       3.52547416       1.93778629
C       -4.46228198       3.95021129       3.08436077
N       -3.29422968       3.28830395       3.35279276
C       -2.51705132       2.48263133       2.49392195
C       -1.72832027       1.47801605       3.06460071
C       -0.92336312       0.66678507       2.25743978
C       -0.88146412       0.88146412       0.88146412
C       -1.63181164       1.90310953       0.30728252
C       -2.44470509       2.70374991       1.11507879
N       -4.79660196       4.98900864       3.91050731
C       -4.02520082       5.83201133       4.73589021
C       -4.73201220       6.77701989       5.49434798
C       -4.06060501       7.70184647       6.29905245
C       -2.67076690       7.68781610       6.34709770
C       -1.95285710       6.76098411       5.59577598
C       -2.62932610       5.83985508       4.78554790
H       -3.10839720       3.19429690       4.34434677
H       -1.75092839       1.29171471       4.13482554
H       -0.33669437      -0.12888892       2.71012179
H       -1.59055565       2.09229329      -0.76197550
H       -2.98802098       3.51927281       0.64585659
H       -5.76459525       5.27105362       3.78597306
H       -5.81911292       6.81058253       5.46575385
H       -4.63010961       8.42936005       6.87147310
H       -0.86549134       6.75905047       5.61348879
H       -2.02572620       5.18121192       4.17146797
C       -1.97209297       8.64795098       7.16171157
C       -1.38695355       9.45206394       7.84395068
Br      -0.44083260      10.75224659       8.94707363
S        5.41919354      -1.75207251       3.90401233
C        4.57362081      -3.19159386       3.73163937
N        3.27069362      -3.33012461       3.33450816
C        2.50138254      -2.47883097       2.51339110
C        1.11311896      -2.47208560       2.68573246
C        0.30463544      -1.66152834       1.88142419
C        0.88146412      -0.88146412       0.88146412
C        2.25735468      -0.90975801       0.67509100
C        3.06362521      -1.71117558       1.48873299
N        5.22249315      -4.32069330       4.15293146
C        5.01543835      -5.68961169       3.88805232
C        5.86680438      -6.58729350       4.54928218
C        5.78760928      -7.96237162       4.31152302
C        4.85302658      -8.44888426       3.40376987
C        4.00436775      -7.57163502       2.73361441
C        4.09122500      -6.19353774       2.96996634
H        2.75494314      -4.00392669       3.88817104
H        0.64481335      -3.06949965       3.46315564
H       -0.77025808      -1.64398939       2.04419592
H        2.71509872      -0.32109886      -0.11532413
H        4.12915345      -1.74490860       1.27908833
H        6.08865681      -4.09808451       4.63488061
H        6.61016050      -6.22763072       5.25765807
H        6.46344776      -8.63720497       4.83029004
H        3.28594325      -7.94468398       2.00740337
H        3.45373639      -5.54681877       2.37785092
C        4.77667384      -9.86287056       3.14221112
C        4.71272841     -11.04708410       2.92315566
Br       4.60933407     -12.96185722       2.56896152
