130
Properties=species:S:1:pos:R:3 pbc="F F F"
S        2.58352090       5.02673306      -6.19473649
C        4.05566340       4.72267183      -5.44823088
N        4.24365704       4.24082927      -4.18055215
C        3.38953286       3.42453113      -3.40925269
C        3.47176658       3.51332157      -2.01556095
C        2.66146705       2.70911648      -1.20671651
C        1.79136815       1.79136815      -1.79136815
C        1.72926694       1.66669904      -3.17594978
C        2.53114362       2.48059068      -3.98151156
N        5.16946186       5.11754768      -6.13882044
C        6.52953294       4.76362735      -6.02965414
C        7.41564185       5.42288319      -6.89456709
C        8.77623984       5.10331767      -6.91165849
C        9.25951569       4.11500443      -6.06087266
Br      11.09365728       3.66188764      -6.09185000
C        8.39308051       3.44585898      -5.20038976
C        7.02895531       3.76465304      -5.19083279
H        4.97760413       4.72348665      -3.67566216
H        4.14033322       4.22614978      -1.54069772
H        2.71462513       2.80779442      -0.12521976
H        1.06924340       0.93979339      -3.64154872
H        2.49184064       2.33372048      -5.05730134
H        4.92750050       5.66245844      -6.96137507
H        7.05764153       6.19383611      -7.57368373
H        9.44164676       5.62267738      -7.59633069
H        8.76193888       2.65787055      -4.54793324
H        6.38499183       3.17290552      -4.55022081
S       -2.49645691      -5.92224364      -5.38628990
C       -3.94048964      -5.08776003      -5.19831645
N       -4.25700150      -4.22231763      -4.18571933
C       -3.39548001      -3.42786608      -3.39997059
C       -3.81137836      -3.07847789      -2.11079285
C       -3.00255919      -2.27426668      -1.30047417
C       -1.79136815      -1.79136815      -1.79136815
C       -1.38556375      -2.10022755      -3.08612445
C       -2.19017541      -2.91434926      -3.88872120
N       -4.93619873      -5.40875348      -6.08087778
C       -6.11817696      -4.74219222      -6.46244525
C       -6.94177308      -5.41145261      -7.37986644
C       -8.10605190      -4.81410429      -7.87105981
C       -8.45274167      -3.53583134      -7.44681977
Br     -10.01383092      -2.71220947      -8.12135454
C       -7.64347791      -2.85428357      -6.54156778
C       -6.47400300      -3.45394303      -6.05649512
H       -5.19485844      -4.35562470      -3.82626980
H       -4.75006185      -3.44902640      -1.70809246
H       -3.32423506      -2.03317693      -0.29022732
H       -0.45271718      -1.71194496      -3.48592338
H       -1.86835021      -3.10590100      -4.90861124
H       -4.68834185      -6.21285633      -6.65013583
H       -6.68548456      -6.40890686      -7.73076995
H       -8.72381639      -5.34966520      -8.58717325
H       -7.89880064      -1.84648322      -6.22245881
H       -5.84477168      -2.85943976      -5.40390672
S       -6.64032916       4.11016994       3.05449135
C       -5.44175265       4.73599725       4.04881622
N       -4.19860081       4.20370402       4.26273363
C       -3.42572032       3.39065798       3.40693837
C       -2.50126751       2.51424607       3.98513552
C       -1.69591410       1.70286010       3.17852585
C       -1.79136815       1.79136815       1.79136815
C       -2.67962612       2.68761342       1.20467622
C       -3.49181311       3.48787731       2.01355544
N       -5.79978171       5.81493437       4.81111390
C       -5.04275910       6.79362394       5.48643139
C       -5.76733942       7.74153740       6.22421532
C       -5.11888497       8.79096832       6.88136271
C       -3.73474275       8.89974404       6.80090599
Br      -2.85156604      10.32699907       7.66882982
C       -3.00023670       7.97147015       6.06762240
C       -3.65452645       6.92476279       5.40515191
H       -3.92115969       4.21850978       5.23708346
H       -2.41532490       2.42708288       5.06477294
H       -1.00138883       1.00555594       3.64069454
H       -2.74725558       2.77931225       0.12401769
H       -4.14658512       4.20702083       1.52925651
H       -6.79688739       6.00080185       4.75364477
H       -6.85132224       7.67969966       6.29413947
H       -5.70284287       9.51749261       7.44031936
H       -1.91985936       8.06369469       5.98418862
H       -3.04669674       6.26558369       4.79583774
S        6.72238194      -3.69179524       3.39081327
C        5.50878637      -4.56946704       4.14831270
N        4.19203896      -4.21176775       4.26123175
C        3.42338273      -3.38878227       3.41115168
C        2.33610789      -2.70234095       3.96220026
C        1.53013025      -1.89088289       3.15628691
C        1.79136815      -1.79136815       1.79136815
C        2.84644350      -2.50034669       1.22512557
C        3.65748946      -3.30036343       2.03539298
N        5.91284373      -5.68926653       4.82371971
C        5.21504546      -6.82457934       5.28318963
C        5.96647946      -7.77093581       5.99567687
C        5.38669670      -8.96145608       6.44306323
C        4.04543399      -9.21404452       6.17591427
Br       3.25857283     -10.83005114       6.75877096
C        3.28620401      -8.28873019       5.46439506
C        3.87268159      -7.09956266       5.01219689
H        3.81096212      -4.38117906       5.18461176
H        2.11898377      -2.76309172       5.02510522
H        0.70522465      -1.34038773       3.60202693
H        3.04620982      -2.44599498       0.15838071
H        4.44847599      -3.87404264       1.56034383
H        6.92556247      -5.75306397       4.87270756
H        7.01906682      -7.59701146       6.20908309
H        5.99155480      -9.68274466       6.98635538
H        2.24254427      -8.49048205       5.23471634
H        3.25850321      -6.44093840       4.40867656
C       -0.00445707       0.01189536      -1.78238275
H       -0.66409135       0.67374010      -2.43557963
H        0.65740317      -0.63156657      -2.45157240
C       -0.90989263      -0.90692880      -0.91072765
C        0.90977584       0.90977584      -0.90977584
C       -0.00465871       1.77757030       0.00794375
H       -0.66225468       2.44313916      -0.64384735
H        0.64322798       2.43503045       0.67728295
C       -1.78241447       0.00034974      -0.00472694
H       -2.45427497      -0.65498947       0.64260836
H       -2.43311707       0.67328779      -0.65473579
C       -0.91132561       0.90220522       0.91563759
C       -0.01476271      -0.02253852       1.78660255
H       -0.67934791      -0.69751639       2.42135241
H        0.63392994       0.61504881       2.47327442
C        0.01484550      -1.77751727      -0.01636693
H        0.67870853      -2.42144646      -0.68295456
H       -0.62264859      -2.45592969       0.64226336
C        1.78714474       0.01002794       0.00389507
H        2.44202412       0.67113390       0.66197326
H        2.45385902      -0.65136977      -0.64189061
C        0.91606151      -0.90478549       0.90901405
