109
Properties=species:S:1:pos:R:3 pbc="F F F"
C        0.00000000       0.00000000       0.00000000
S        1.67361687       4.11682903      -5.28483247
C        3.14575938       3.81276781      -4.53832686
N        3.33375302       3.33092524      -3.27064813
C        2.47962884       2.51462710      -2.49934867
C        2.56186256       2.60341754      -1.10565693
C        1.75156303       1.79921245      -0.29681249
C        0.88146412       0.88146412      -0.88146412
C        0.81936291       0.75679502      -2.26604575
C        1.62123959       1.57068666      -3.07160753
N        4.25955784       4.20764365      -5.22891642
C        5.61962891       3.85372333      -5.11975012
C        6.50573783       4.51297916      -5.98466307
C        7.86633581       4.19341364      -6.00175447
C        8.34961167       3.20510040      -5.15096863
Br      10.18375326       2.75198362      -5.18194598
C        7.48317649       2.53595496      -4.29048574
C        6.11905129       2.85474902      -4.28092877
H        4.06770011       3.81358263      -2.76575813
H        3.23042919       3.31624575      -0.63079369
H        1.80472110       1.89789039       0.78468426
H        0.15933938       0.02988936      -2.73164470
H        1.58193662       1.42381645      -4.14739731
H        4.01759647       4.75255441      -6.05147105
H        6.14773751       5.28393209      -6.66377970
H        8.53174274       4.71277336      -6.68642667
H        7.85203485       1.74796653      -3.63802922
H        5.47508781       2.26300149      -3.64031679
S       -2.90358044      -2.37417932      -5.79751862
C       -3.70886903      -3.20575333      -4.58223168
N       -3.29939242      -3.35196092      -3.28397304
C       -2.47935544      -2.49999565      -2.51425352
C       -1.73448549      -3.06360735      -1.47284419
C       -0.92303226      -2.25749309      -0.66706262
C       -0.88146412      -0.88146412      -0.88146412
C       -1.64819923      -0.30464209      -1.88936236
C       -2.44825779      -1.11450636      -2.70076963
N       -4.81814905      -3.90703556      -4.97093329
C       -5.91017928      -4.43217582      -4.25074727
C       -6.85765958      -5.15185615      -4.99386433
C       -8.00957725      -5.66278008      -4.38914659
C       -8.22213262      -5.45264203      -3.03090605
Br      -9.78660842      -6.12177128      -2.20930316
C       -7.29534727      -4.73497507      -2.27929484
C       -6.14519599      -4.21905851      -2.89047457
H       -3.42198198      -4.29382088      -2.93123801
H       -1.74963149      -4.13503450      -1.29280265
H       -0.32726849      -2.71164052       0.12098178
H       -1.63894367       0.76977195      -2.05170172
H       -3.06696860      -0.63313627      -3.45304551
H       -4.91724154      -3.92250169      -5.98187871
H       -6.71498790      -5.32140731      -6.05905409
H       -8.73289098      -6.21041847      -4.98763333
H       -7.46671270      -4.54987666      -1.22144124
H       -5.48625264      -3.61389571      -2.27825773
S       -5.68770825       2.05513497       3.33243514
C       -4.62988729       3.34421249       3.52275426
N       -3.27285167       3.31964874       3.34282598
C       -2.50657006       2.47767203       2.50936252
C       -1.18127096       2.21646702       2.87319905
C       -0.37377368       1.40536792       2.06844637
C       -0.88146412       0.88146412       0.88146412
C       -2.18599103       1.16647054       0.48974212
C       -2.99417169       1.96696020       1.30240190
N       -5.17295889       4.49400313       4.02915589
C       -4.73294722       5.83316527       4.02698986
C       -5.54622124       6.75668045       4.70047837
C       -5.23461407       8.11921128       4.70767858
C       -4.10306284       8.56769904       4.03491882
Br      -3.68540406      10.41045229       4.02182651
C       -3.28805485       7.66583835       3.35572399
C       -3.60733422       6.30183102       3.34556383
H       -2.76582655       3.81323248       4.06798183
H       -0.76847783       2.61165496       3.79733585
H        0.64575880       1.18694718       2.37673885
H       -2.58508178       0.77991679      -0.44412514
H       -3.99449692       2.20627560       0.95237787
H       -6.12972976       4.35206988       4.33982229
H       -6.44011218       6.42853798       5.22679913
H       -5.88455014       8.81633117       5.23006146
H       -2.41364051       8.01370653       2.81068356
H       -2.97867744       5.64890342       2.75082523
S        2.45200034      -5.80929740       2.81398063
C        3.22947865      -4.59473585       3.67263954
N        3.35151155      -3.28261360       3.30120124
C        2.50091523      -2.51369117       2.47899821
C        3.05567712      -1.43838293       1.77687698
C        2.24971093      -0.63245824       0.96541881
C        0.88146412      -0.88146412       0.88146412
C        0.31203434      -1.92421418       1.60595517
C        1.12219549      -2.73535793       2.40598036
N        3.91176061      -4.99457505       4.78978225
C        4.38879563      -4.29043023       5.91387649
C        5.10316555      -5.03962762       6.86058689
C        5.56752350      -4.45284383       8.04113659
C        5.31564078      -3.10671745       8.28332248
Br       5.92153561      -2.31011767       9.88602957
C        4.60251609      -2.34953322       7.35756788
C        4.13329589      -2.94295191       6.17848128
H        4.28007831      -2.90885588       3.45810668
H        4.12114303      -1.23094540       1.82538021
H        2.69797936       0.18281815       0.40276602
H       -0.75704369      -2.11419739       1.56371974
H        0.64516799      -3.51621447       2.99176792
H        3.95168935      -6.00706366       4.86286893
H        5.30482516      -6.09583603       6.69478811
H        6.11194374      -5.05599673       8.76300230
H        4.38476851      -1.30182904       7.55143306
H        3.52934610      -2.32930065       5.51975934
