109
Properties=species:S:1:pos:R:3 pbc="F F F"
C        0.00000000       0.00000000       0.00000000
S        2.07657512      -1.56394890      -4.63534911
C        3.41956748      -0.63849837      -4.25051893
N        3.42739304       0.56520649      -3.59665911
C        2.52750968       1.08987936      -2.64566852
C        2.52547033       2.47731273      -2.45224056
C        1.68880431       3.06361958      -1.49792881
C        0.86005631       2.26422549      -0.71337104
C        0.88258057       0.88258057      -0.88258057
C        1.71356715       0.29268998      -1.83690652
N        4.61610255      -1.07237822      -4.75646480
C        5.95226905      -0.73954364      -4.45095168
C        6.93856787      -1.26468106      -5.29795416
C        8.29296598      -1.00204576      -5.07342733
C        8.67684058      -0.21616659      -3.99085210
C        7.70328112       0.28523786      -3.13120042
Br       8.22307350       1.33072299      -1.64226453
C        6.34781169       0.01893608      -3.34753088
H        4.09141974       1.22499850      -3.98533737
H        3.16404531       3.12344328      -3.05097262
H        1.68427161       4.14328578      -1.36695747
H        0.21390406       2.72292720       0.02956462
H        1.74018362      -0.78915981      -1.90748028
H        4.49434990      -1.83705217      -5.41438838
H        6.66580165      -1.88072829      -6.15275465
H        9.04487038      -1.41205782      -5.74305570
H        9.73054908      -0.01252237      -3.81917465
H        5.63253817       0.37385163      -2.61463590
S       -3.24353193       1.86829333      -3.77273672
C       -4.29506237       0.62875819      -3.36528387
N       -3.95718495      -0.64404158      -2.98803211
C       -2.80058851      -1.12375525      -2.33871380
C       -2.51837670      -2.49177452      -2.44487240
C       -1.41127052      -3.04467027      -1.79441189
C       -0.58675250      -2.23653820      -1.01436214
C       -0.88258057      -0.88258057      -0.88258057
C       -1.98484347      -0.32503890      -1.53328127
N       -5.62779212       0.88184772      -3.55424474
C       -6.79176287       0.22768557      -3.09959980
C       -8.00971214       0.67170919      -3.63383802
C       -9.22038700       0.09524269      -3.23920325
C       -9.22629506      -0.92865181      -2.29657922
C       -8.02204032      -1.35470295      -1.74297614
Br      -8.02840901      -2.72716178      -0.44049023
C       -6.80924302      -0.77589814      -2.12913749
H       -4.56400637      -1.35153429      -3.38621495
H       -3.14726375      -3.14449897      -3.04669848
H       -1.19293922      -4.10523374      -1.89634190
H        0.27052480      -2.67023717      -0.50755427
H       -2.21209347       0.72255097      -1.36896159
H       -5.78109701       1.75686511      -4.04745420
H       -8.03346858       1.46947829      -4.37383772
H      -10.15559255       0.44718180      -3.66745751
H      -10.16893800      -1.37596108      -1.99230230
H       -5.90548615      -1.09345185      -1.62208770
S       -3.49579635       3.53340568      -1.88122671
C       -3.10250619       4.49669874      -0.56761688
N       -2.81216323       4.07434957       0.70274584
C       -2.24962474       2.86143015       1.15200268
C       -2.44364188       2.51577563       2.49560611
C       -1.88137785       1.34840656       3.02056828
C       -1.10208828       0.52544718       2.21011738
C       -0.88258057       0.88258057       0.88258057
C       -1.44508139       2.04537022       0.35271203
N       -3.20916678       5.84886928      -0.75784692
C       -2.73152015       6.95167743      -0.01952049
C       -3.17808305       8.21775372      -0.42399580
C       -2.75370588       9.37434330       0.23629837
C       -1.86856224       9.27708753       1.30587632
C       -1.40101928       8.02454324       1.69415689
Br      -0.17576874       7.89053252       3.12975976
C       -1.81692894       6.86550000       1.03184971
H       -3.21634773       4.66478031       1.42062757
H       -3.04682734       3.14198561       3.14964826
H       -2.05134312       1.08194761       4.06122413
H       -0.66388329      -0.37894754       2.62233088
H       -1.21314198       2.31669772      -0.67133561
H       -3.64602043       6.07306728      -1.64740161
H       -3.87183151       8.32211131      -1.25611481
H       -3.11399609      10.34803750      -0.08616533
H       -1.54103673      10.17785863       1.81830601
H       -1.37459998       5.92067931       1.32574641
S       -1.02502503      -5.10403812       1.06896223
C       -0.38815272      -4.82591117       2.59382961
N        0.66952371      -4.01340627       2.90632866
C        1.14802086      -2.85412584       2.26091086
C        2.46587994      -2.46124538       2.52789830
C        2.99451818      -1.30061976       1.95521475
C        2.20201548      -0.51058490       1.12505246
C        0.88258057      -0.88258057       0.88258057
C        0.35129067      -2.04276285       1.44911013
N       -0.89903647      -5.58986852       3.60935709
C       -0.82450254      -5.47500322       5.01317642
C       -1.33419463      -6.54806789       5.75796772
C       -1.31666508      -6.52555795       7.15545469
C       -0.79552360      -5.42224004       7.82480965
C       -0.31301016      -4.34255827       7.09017130
Br       0.37049401      -2.82888356       7.99668345
C       -0.33537333      -4.35744037       5.69221161
H        1.28169536      -4.40992045       3.61013980
H        3.10490585      -3.05990930       3.17364605
H        4.02386575      -1.01341671       2.15723240
H        2.61499819       0.39239877       0.68466722
H       -0.69390284      -2.27529996       1.27710696
H       -1.51171321      -6.32197662       3.26142270
H       -1.74578739      -7.42384673       5.25976867
H       -1.71050311      -7.36832175       7.71804962
H       -0.78203093      -5.40775169       8.91148061
H       -0.01154610      -3.46752479       5.16504702
