138
Properties=species:S:1:pos:R:3 pbc="F F F"
S        2.98647914      -0.65404488      -5.54525313
C        4.32947151       0.27140566      -5.16042296
N        4.33729706       1.47511052      -4.50656313
C        3.43741371       1.99978339      -3.55557254
C        3.43537435       3.38721675      -3.36214458
C        2.59870833       3.97352360      -2.40783283
C        1.76996034       3.17412951      -1.62327506
C        1.79248459       1.79248459      -1.79248459
C        2.62347117       1.20259400      -2.74681055
N        5.52600657      -0.16247419      -5.66636883
C        6.86217307       0.17036039      -5.36085571
C        7.84847190      -0.35477703      -6.20785819
C        9.20287000      -0.09214173      -5.98333136
C        9.58674460       0.69373744      -4.90075612
C        8.61318515       1.19514189      -4.04110444
C        7.25771571       0.92884010      -4.25743491
H        5.00132377       2.13490252      -4.89524139
H        4.07394933       4.03334730      -3.96087664
H        2.59417563       5.05318981      -2.27686149
H        1.12380809       3.63283122      -0.88033940
H        2.65008765       0.12074421      -2.81738430
H        5.40425392      -0.92714815      -6.32429240
H        7.57570567      -0.97082427      -7.06265867
H        9.95477440      -0.50215379      -6.65295972
H       10.64045311       0.89738166      -4.72907868
H        6.54244219       1.28375566      -3.52453992
C        9.00877176       1.99080557      -2.90795373
C        9.34007554       2.65717391      -1.95894001
Br       9.87576575       3.73463514      -0.42446509
S       -3.29842794      -5.35004058       0.77078113
C       -3.02551595      -5.97641741      -0.75936676
N       -3.07701376      -5.29522819      -1.94672876
C       -2.83147304      -3.93476048      -2.22653611
C       -3.35200329      -3.41431685      -3.41841554
C       -3.11453490      -2.08503685      -3.78049302
C       -2.33624021      -1.26890621      -2.96221849
C       -1.79248459      -1.79248459      -1.79248459
C       -2.02995011      -3.11822650      -1.42469911
N       -2.86104596      -7.33405838      -0.83479686
C       -2.36545470      -8.17482986      -1.85310461
C       -2.49937076      -9.55523978      -1.64694250
C       -2.03007907     -10.47194875      -2.59203181
C       -1.41209606     -10.01631992      -3.75282219
C       -1.25235126      -8.64739610      -3.94968413
C       -1.71348135      -7.72692774      -3.00358162
H       -3.51397279      -5.82600175      -2.69149314
H       -3.96171301      -4.03111233      -4.07534794
H       -3.53647407      -1.68718626      -4.70056660
H       -2.15088535      -0.23761095      -3.24848242
H       -1.55083768      -3.50527728      -0.53210120
H       -3.06223718      -7.78988888       0.05072787
H       -2.98024204      -9.93842602      -0.74887202
H       -2.14698595     -11.53894836      -2.41964602
H       -1.04911097     -10.73118657      -4.48661590
H       -1.50675278      -6.67579350      -3.16819150
C       -0.59424076      -8.17363212      -5.13965819
C       -0.04307322      -7.77685478      -6.13626146
Br       0.84811808      -7.13529939      -7.74768467
S       -5.30829678      -0.79108959       3.36048020
C       -5.95298372       0.72978655       3.07852985
N       -5.28346322       1.92443398       3.11107351
C       -3.92847243       2.21545163       2.84884558
C       -3.41498826       3.41777912       3.35196831
C       -2.09194010       3.79082569       3.09729897
C       -1.27540530       2.97293756       2.31902205
C       -1.79248459       1.79248459       1.79248459
C       -3.11193680       1.41376632       2.04717260
N       -7.31291626       0.78981351       2.92717144
C       -8.16900146       1.79446342       2.42992428
C       -9.54581184       1.57574265       2.57999856
C      -10.47681369       2.50668288       2.11056306
C      -10.03932309       3.66564949       1.47626559
C       -8.67416366       3.87469139       1.30057643
C       -7.73947493       2.94269276       1.76182303
H       -5.81736871       2.66821877       3.54588020
H       -4.03226499       4.07463505       3.96127324
H       -1.69925824       4.71913051       3.50583818
H       -0.24901084       3.26769966       2.12026821
H       -3.49467803       0.51245992       1.58107821
H       -7.75762897      -0.09817185       3.14194106
H       -9.91493404       0.67880132       3.07380471
H      -11.54076266       2.32472782       2.24008984
H      -10.76527281       4.38844020       1.11320043
H       -6.69221782       3.11579564       1.54272432
C       -8.21924307       5.06261234       0.62567565
C       -7.83824707       6.05749614       0.06044625
Br      -7.22220876       7.66613910      -0.85348188
S        1.87305312      -6.04866907      -0.04403480
C        1.87353077      -6.27083326       1.61693609
N        2.35459612      -5.40300641       2.56136818
C        2.46145177      -3.99683652       2.53448134
C        3.35629124      -3.39790062       3.43054383
C        3.48522102      -2.00701175       3.48783200
C        2.70440909      -1.20078053       2.66217529
C        1.79248459      -1.79248459       1.79248459
C        1.66282351      -3.18115045       1.72890175
N        1.46764233      -7.50128667       2.06097221
C        1.08645604      -7.97224434       3.33468879
C        0.88831026      -9.35477256       3.45847023
C        0.49867044      -9.91878173       4.67660745
C        0.29396434      -9.10232289       5.78495094
C        0.46302924      -7.72605375       5.66034849
C        0.84542557      -7.15663885       4.44192631
H        2.85005249      -5.86790077       3.31351442
H        3.97642280      -4.00497154       4.08677893
H        4.19428221      -1.55340151       4.17654321
H        2.80471609      -0.12034648       2.71191614
H        0.90860115      -3.60476672       1.07484829
H        1.34626332      -8.15904131       1.29609355
H        1.04321993     -10.01620693       2.60811322
H        0.35494297     -10.99335426       4.75728310
H       -0.00786502      -9.54352799       6.73125048
H        0.89894296      -6.07614861       4.37564621
C        0.23119620      -6.87657977       6.79975509
C        0.03703603      -6.16514532       7.75400812
Br      -0.27690455      -5.01481597       9.29695456
C       -0.00445707       0.01189536      -1.78238275
H       -0.66409135       0.67374010      -2.43557963
H        0.65740317      -0.63156657      -2.45157240
C       -0.90989263      -0.90692880      -0.91072765
C        0.90977584       0.90977584      -0.90977584
C       -0.00465871       1.77757030       0.00794375
H       -0.66225468       2.44313916      -0.64384735
H        0.64322798       2.43503045       0.67728295
C       -1.78241447       0.00034974      -0.00472694
H       -2.45427497      -0.65498947       0.64260836
H       -2.43311707       0.67328779      -0.65473579
C       -0.91132561       0.90220522       0.91563759
C       -0.01476271      -0.02253852       1.78660255
H       -0.67934791      -0.69751639       2.42135241
H        0.63392994       0.61504881       2.47327442
C        0.01484550      -1.77751727      -0.01636693
H        0.67870853      -2.42144646      -0.68295456
H       -0.62264859      -2.45592969       0.64226336
C        1.78714474       0.01002794       0.00389507
H        2.44202412       0.67113390       0.66197326
H        2.45385902      -0.65136977      -0.64189061
C        0.91606151      -0.90478549       0.90901405
