125
Properties=species:S:1:pos:R:3 pbc="F F F"
C        0.00000000       0.00000000       0.00000000
C        0.88415535       0.88415535      -0.88415535
C        0.41949082       2.14199394      -1.27553449
C        1.21993269       2.94939651      -2.08093991
C        2.47140597       2.48784030      -2.48096432
O        3.23093021       3.31214005      -3.27528215
C        2.95669134       1.22452402      -2.09398179
C        4.28411150       0.71705352      -2.50051388
H        4.57547094      -0.26572427      -2.14006740
N        5.05173419       1.48462068      -3.29612339
N        6.29027069       0.82659501      -3.55575752
C        6.99972063       1.52249257      -4.46294579
H        6.65552387       2.43840755      -4.93542768
C        8.33806061       1.02346794      -4.84026644
C        8.97965231       1.56806612      -5.95729990
C       10.24289597       1.10774609      -6.33363626
C       10.89268239       0.11084777      -5.60109120
C       10.26936697      -0.43499094      -4.48094018
C        9.00597885       0.01969239      -4.11385050
O        8.41487969      -0.54992787      -3.01226507
C        2.14007340       0.42427732      -1.28680036
H       -0.55446849       2.49952287      -0.96185698
H        0.88991166       3.92966559      -2.40265623
H        4.06588470       2.74505169      -3.41622789
H        8.47030606       2.33845959      -6.52805886
H       11.87248139      -0.24778891      -5.89442781
H       10.74418192      -1.21060762      -3.89243832
H        7.50080713      -0.09930339      -3.01610058
H        2.50179295      -0.55279969      -0.98349028
C       10.88767440       1.66216063      -7.49574009
C       11.42767633       2.12648280      -8.46900204
Br      12.30081377       2.87725249     -10.04268431
C       -0.88415535      -0.88415535      -0.88415535
C       -0.40341024      -2.12516928      -1.30843974
C       -1.20381613      -2.93247540      -2.11397758
C       -2.47127937      -2.48765347      -2.48127776
O       -3.23024907      -3.31127129      -3.27683206
C       -2.97282622      -1.24147833      -2.06089261
C       -4.31720279      -0.75210034      -2.43237578
H       -4.62009856       0.21788053      -2.04759604
N       -5.08536625      -1.51913801      -3.22797400
N       -6.34090717      -0.88032497      -3.45139108
C       -7.05442681      -1.57248635      -4.35824583
H       -6.70213857      -2.47249020      -4.85473032
C       -8.40899609      -1.09231440      -4.70048450
C       -9.06159154      -1.62795283      -5.81547395
C      -10.34034067      -1.18504178      -6.15889588
C      -10.99462400      -0.21489758      -5.39509979
C      -10.36026150       0.32156950      -4.27662421
C       -9.08165294      -0.11552919      -3.94233962
O       -8.48030291       0.44444075      -2.84135472
C       -2.15608052      -0.44104711      -1.25402345
H        0.58300701      -2.46971999      -1.02019838
H       -0.86157346      -3.89993566      -2.46072437
H       -4.07834594      -2.75782500      -3.39099334
H       -8.54886252      -2.37744410      -6.41051788
H      -11.98650749       0.13026303      -5.66287582
H      -10.83822848       1.07661231      -3.66439644
H       -7.55811233       0.01168078      -2.87117276
H       -2.53030471       0.52295918      -0.92513801
C      -10.99680512      -1.72970173      -7.31906826
C      -11.54659410      -2.18585444      -8.29071263
Br     -12.43555638      -2.92341479      -9.86177940
C       -0.88415535       0.88415535       0.88415535
C       -2.23713645       0.56917436       1.03070844
C       -3.04569023       1.37142739       1.83315148
C       -2.48945701       2.47394946       2.47680413
O       -3.31866076       3.24118895       3.25850271
C       -1.12789811       2.80467402       2.34262503
C       -0.51449480       3.96543471       3.02174940
H        0.54813545       4.13116577       2.86678375
N       -1.29633833       4.75551781       3.78062211
N       -0.51502499       5.80009119       4.35750704
C       -1.31439783       6.67233428       4.99842687
H       -2.39698208       6.59035099       5.04202603
C       -0.68947481       7.81260382       5.69971637
C       -1.49562699       8.86568699       6.14370435
C       -0.92464278       9.95482754       6.80480800
C        0.45067476      10.00926355       7.04603257
C        1.26510635       8.96338269       6.61703986
C        0.69388409       7.88334017       5.95006566
O        1.52796302       6.87617976       5.52900015
C       -0.32921851       1.99052152       1.53141105
H       -2.66747788      -0.29023221       0.52966569
H       -4.09861554       1.15571324       1.96790470
H       -2.67554432       3.95653178       3.59508818
H       -2.56307503       8.82368370       5.95006578
H        0.89409250      10.85568022       7.55753257
H        2.33502568       8.97518415       6.78585414
H        0.87978737       6.27290581       5.02448588
H        0.72164341       2.23615850       1.41796845
C       -1.76064695      11.04261862       7.24230954
C       -2.46080044      11.95364365       7.60871707
Br      -3.59288942      13.42669407       8.20116708
C        0.88415535      -0.88415535       0.88415535
C        1.98020516      -0.31766689       1.53914720
C        2.78816401      -1.11845886       2.34364623
C        2.48741556      -2.47113865       2.48165639
O        3.30772406      -3.22815095       3.28247740
C        1.38572186      -3.05814335       1.83133195
C        1.04336405      -4.48947938       1.96883547
H        0.16530736      -4.84674644       1.43776027
N        1.83347235      -5.27128865       2.72771726
N        1.32433846      -6.60353216       2.74475261
C        2.18599575      -7.41730520       3.38185804
H        3.13674452      -7.09503155       3.79758303
C        1.82102203      -8.84001190       3.54076107
C        2.79597194      -9.75245120       3.95659518
C        2.47313635     -11.10222254       4.10891943
C        1.17722694     -11.56382233       3.86357209
C        0.19346215     -10.66489230       3.45696176
C        0.52092725      -9.32143769       3.29715681
O       -0.46995330      -8.46521275       2.88195744
C        0.58498355      -2.24121601       1.02495152
H        2.21151629       0.73572927       1.43112433
H        3.64580761      -0.71126186       2.86516400
H        2.87455602      -4.14738997       3.20521830
H        3.80341958      -9.39229815       4.14110677
H        0.92717738     -12.61196209       3.97998083
H       -0.82017327     -10.98990698       3.25627889
H        0.04530272      -7.59181692       2.78048468
H       -0.26608679      -2.68223953       0.51633080
C        3.48832238     -12.03699364       4.52025909
C        4.33854068     -12.81986444       4.86475605
Br       5.71327176     -14.08570031       5.42177850
