138
Properties=species:S:1:pos:R:3 pbc="F F F"
C        1.79405937       1.79405937      -1.79405937
C        1.32939484       3.05189797      -2.18543852
C        2.12983671       3.85930053      -2.99084394
C        3.38130999       3.39774433      -3.39086834
O        4.14083424       4.22204408      -4.18518618
C        3.86659537       2.13442805      -3.00388582
C        5.19401552       1.62695755      -3.41041791
H        5.48537497       0.64417976      -3.04997142
N        5.96163822       2.39452470      -4.20602741
N        7.20017471       1.73649904      -4.46566155
C        7.90962465       2.43239659      -5.37284981
H        7.56542789       3.34831157      -5.84533171
C        9.24796463       1.93337197      -5.75017047
C        9.88955633       2.47797014      -6.86720393
C       11.15280000       2.01765011      -7.24354028
Br      12.00111848       2.74707914      -8.77249056
C       11.80258641       1.02075179      -6.51099523
C       11.17927099       0.47491308      -5.39084421
C        9.91588287       0.92959642      -5.02375453
O        9.32478371       0.35997615      -3.92216910
C        3.04997742       1.33418134      -2.19670439
H        0.35543553       3.40942689      -1.87176101
H        1.79981569       4.83956961      -3.31256025
H        4.97578872       3.65495572      -4.32613191
H        9.38021008       3.24836362      -7.43796288
H       12.78238542       0.66211511      -6.80433184
H       11.65408594      -0.30070360      -4.80234234
H        8.41071116       0.81060063      -3.92600460
H        3.41169697       0.35710434      -1.89339431
C       -1.79405937      -1.79405937      -1.79405937
C       -1.39154301      -3.10229521      -2.07289311
C       -2.19214093      -3.91000296      -2.87783728
C       -3.38181503      -3.39831904      -3.38978859
O       -4.14351194      -4.22468960      -4.17986296
C       -3.80421628      -2.08362231      -3.11707065
C       -5.06600159      -1.52185952      -3.64352987
H       -5.31256500      -0.50054816      -3.36641298
N       -5.83185152      -2.29131583      -4.43902298
N       -7.00425776      -1.57534653      -4.82273101
C       -7.70029417      -2.28464820      -5.72992869
H       -7.38952537      -3.25028468      -6.11926111
C       -8.97536898      -1.72863329      -6.22750479
C       -9.58036206      -2.30573627      -7.34863206
C      -10.78333684      -1.79294045      -7.83771310
Br     -11.58060902      -2.56881710      -9.37126206
C      -11.40935846      -0.70979902      -7.21517596
C      -10.82267668      -0.13009517      -6.09225643
C       -9.61859315      -0.63791168      -5.61272899
O       -9.06121098      -0.03374487      -4.51197311
C       -2.98810681      -1.28394236      -2.30881398
H       -0.46571479      -3.49868405      -1.67222459
H       -1.90936036      -4.92864608      -3.11393911
H       -4.92770519      -3.61676727      -4.41240389
H       -9.08911762      -3.14354674      -7.83387222
H      -12.34221230      -0.31056518      -7.59605489
H      -11.28030675       0.71193096      -5.58734889
H       -8.18122662      -0.54047508      -4.42561470
H       -3.30150211      -0.26771631      -2.09297720
C       -1.79405937       1.79405937       1.79405937
C       -3.13319561       1.44656897       1.98696674
C       -3.94173941       2.24865570       2.78958608
C       -3.39927144       3.38351101       3.38714022
O       -4.22803404       4.14946756       4.17056290
C       -2.05166775       3.74731312       3.20592836
C       -1.45273793       4.94291313       3.83573991
H       -0.39978074       5.13312314       3.64662226
N       -2.23543789       5.73234671       4.59440572
N       -1.46825760       6.81355886       5.12051883
C       -2.27398705       7.68130929       5.75957472
H       -3.35226162       7.57112110       5.83568844
C       -1.66236877       8.85736825       6.41177005
C       -2.48530049       9.90012154       6.84930836
C       -1.92724274      11.02249603       7.46425163
Br      -3.05070964      12.43874052       8.03123802
C       -0.54792867      11.12110737       7.66529740
C        0.28348292      10.08619632       7.24231489
C       -0.27522737       8.97274205       6.62126440
O        0.57494823       7.97727903       6.20459816
C       -1.25289630       2.93282144       2.39514541
H       -3.55279112       0.56206611       1.52176620
H       -4.98414999       2.00819911       2.95959645
H       -3.59627147       4.89120722       4.46939766
H       -3.55603202       9.82365195       6.68685260
H       -0.11461825      11.99327926       8.14093486
H        1.35685340      10.13185931       7.38071877
H       -0.06958204       7.34268252       5.73505182
H       -0.21280495       3.20371855       2.24567211
C        1.79405937      -1.79405937       1.79405937
C        3.15415910      -1.49895891       1.91361332
C        3.96271433      -2.30131207       2.71595479
C        3.39940369      -3.38406146       3.38645751
O        4.22882789      -4.15208281       4.16715379
C        2.03067741      -3.69456147       3.27967035
C        1.40985427      -4.83402620       3.98751050
H        0.34229597      -4.98480703       3.85242315
N        2.19118882      -5.62447728       4.74652422
N        1.40269775      -6.64668285       5.35295469
C        2.19830126      -7.52145999       5.99510981
H        3.28263485      -7.45652619       6.01991013
C        1.56665467      -8.63989315       6.72495925
C        2.36289636      -9.69874700       7.17308703
C        1.78534008     -10.76759562       7.86105469
Br       2.87132445     -12.20713557       8.44222816
C        0.41345916     -10.79560547       8.12526880
C       -0.39093024      -9.74357481       7.69238371
C        0.18662129      -8.68392031       6.99869222
O       -0.63790436      -7.67015034       6.57468297
C        1.23204184      -2.88061504       2.46820627
H        3.59002929      -0.65490099       1.39169315
H        5.02104464      -2.10072810       2.83017281
H        3.57986683      -4.85128025       4.52572927
H        3.42756807      -9.67735756       6.96161095
H       -0.03510330     -11.62629424       8.65764142
H       -1.45799249      -9.73512993       7.87858724
H        0.01155840      -7.08578104       6.04997695
H        0.17564123      -3.11080432       2.37575006
C       -0.00445707       0.01189536      -1.78238275
H       -0.66409135       0.67374010      -2.43557963
H        0.65740317      -0.63156657      -2.45157240
C       -0.90989263      -0.90692880      -0.91072765
C        0.90977584       0.90977584      -0.90977584
C       -0.00465871       1.77757030       0.00794375
H       -0.66225468       2.44313916      -0.64384735
H        0.64322798       2.43503045       0.67728295
C       -1.78241447       0.00034974      -0.00472694
H       -2.45427497      -0.65498947       0.64260836
H       -2.43311707       0.67328779      -0.65473579
C       -0.91132561       0.90220522       0.91563759
C       -0.01476271      -0.02253852       1.78660255
H       -0.67934791      -0.69751639       2.42135241
H        0.63392994       0.61504881       2.47327442
C        0.01484550      -1.77751727      -0.01636693
H        0.67870853      -2.42144646      -0.68295456
H       -0.62264859      -2.45592969       0.64226336
C        1.78714474       0.01002794       0.00389507
H        2.44202412       0.67113390       0.66197326
H        2.45385902      -0.65136977      -0.64189061
C        0.91606151      -0.90478549       0.90901405
