146
Properties=species:S:1:pos:R:3 pbc="F F F"
C        1.79405937       1.79405937      -1.79405937
C        1.32939484       3.05189797      -2.18543852
C        2.12983671       3.85930053      -2.99084394
C        3.38130999       3.39774433      -3.39086834
O        4.14083424       4.22204408      -4.18518618
C        3.86659537       2.13442805      -3.00388582
C        5.19401552       1.62695755      -3.41041791
H        5.48537497       0.64417976      -3.04997142
N        5.96163822       2.39452470      -4.20602741
N        7.20017471       1.73649904      -4.46566155
C        7.90962465       2.43239659      -5.37284981
H        7.56542789       3.34831157      -5.84533171
C        9.24796463       1.93337197      -5.75017047
C        9.88955633       2.47797014      -6.86720393
C       11.15280000       2.01765011      -7.24354028
C       11.80258641       1.02075179      -6.51099523
C       11.17927099       0.47491308      -5.39084421
C        9.91588287       0.92959642      -5.02375453
O        9.32478371       0.35997615      -3.92216910
C        3.04997742       1.33418134      -2.19670439
H        0.35543553       3.40942689      -1.87176101
H        1.79981569       4.83956961      -3.31256025
H        4.97578872       3.65495572      -4.32613191
H        9.38021008       3.24836362      -7.43796288
H       12.78238542       0.66211511      -6.80433184
H       11.65408594      -0.30070360      -4.80234234
H        8.41071116       0.81060063      -3.92600460
H        3.41169697       0.35710434      -1.89339431
C       11.79757842       2.57206465      -8.40564411
C       12.33758035       3.03638682      -9.37890607
Br      13.21071780       3.78715651     -10.95258833
C       -1.79405937      -1.79405937      -1.79405937
C       -1.29680183      -3.01558261      -2.25434688
C       -2.09717336      -3.82277946      -3.06002836
C       -3.38105578      -3.39734332      -3.39152357
O       -4.13946049      -4.22017543      -4.18842856
C       -3.89929524      -2.17102018      -2.93459382
C       -5.26106817      -1.70258690      -3.26773590
H       -5.57577823      -0.74740031      -2.85634761
N       -6.02983493      -2.46905709      -4.06329831
N       -7.30277463      -1.85244154      -4.24711912
C       -8.02082372      -2.54060967      -5.15343767
H       -7.66055309      -3.42249307      -5.67602501
C       -9.39197607      -2.08219934      -5.45733167
C      -10.05676826      -2.60831605      -6.56964609
C      -11.35138725      -2.18552290      -6.87708024
C      -12.00932166      -1.24544842      -6.07956335
C      -11.36269790      -0.71896105      -4.96336933
C      -10.06853291      -1.13575818      -4.66494272
O       -9.45576349      -0.58611405      -3.56505141
C       -3.08242057      -1.37037735      -2.12806524
H       -0.29758962      -3.34509622      -1.99393758
H       -1.74238177      -4.77540212      -3.43416166
H       -5.00105745      -3.68253747      -4.27328143
H       -9.54132679      -3.33432046      -7.19088934
H      -13.01357770      -0.91586443      -6.31939023
H      -11.84314420       0.01297160      -4.32555208
H       -8.52564768      -0.99857134      -3.62309737
H       -3.46948578      -0.42151347      -1.77119637
C      -12.02081519      -2.71980356      -8.03466843
C      -12.58146109      -3.16726362      -9.00414853
Br     -13.48797809      -3.89076868     -10.57171587
C       -1.79405937       1.79405937       1.79405937
C       -3.14274114       1.46823590       1.95575429
C       -3.95129269       2.27043383       2.75825466
C       -3.39933401       3.38373961       3.38684905
O       -4.22840227       4.15055185       4.16911037
C       -2.04210684       3.72549534       3.23730705
C       -1.43319287       4.89787337       3.90032473
H       -0.37355571       5.07176404       3.73420639
N       -2.21531856       5.68774675       4.65912502
N       -1.43837302       6.74453088       5.21943139
C       -2.23983807       7.61532594       5.85970704
H       -3.32119414       7.52398270       5.91389433
C       -1.61901896       8.76752012       6.54496799
C       -2.43068463       9.81728706       6.98675870
C       -1.86369702      10.91750427       7.63278910
C       -0.48681226      10.98653467       7.86098651
C        0.33320185       9.94418060       7.43404953
C       -0.23415955       8.85300509       6.78206918
O        0.60521939       7.84961762       6.36253072
C       -1.24339946       2.91123004       2.42623365
H       -3.56974474       0.60045889       1.46641980
H       -5.00095311       2.04646775       2.90452469
H       -3.58881323       4.87469920       4.49336392
H       -3.49940916       9.76389800       6.80322942
H       -0.04652089      11.84153594       8.36077553
H        1.40444843       9.96716667       7.59300645
H       -0.04196285       7.23595605       5.86939748
H       -0.19588239       3.16529182       2.30102141
C       -2.70558660      12.00164801       8.06805257
C       -3.41066913      12.90961839       8.43258572
Br      -4.55072794      14.37772970       9.02200500
C        1.79405937      -1.79405937       1.79405937
C        3.17663803      -1.59475231       1.79534099
C        3.98515939      -2.39757418       2.59724761
C        3.39950285      -3.38505088       3.38536893
O        4.22955670      -4.15681572       4.16169207
C        2.00822680      -3.59812955       3.39855288
C        1.36420339      -4.63506294       4.23212465
H        0.28155851      -4.71397680       4.18399083
N        2.14321475      -5.42703073       4.99194484
N        1.33298720      -6.34179067       5.72755743
C        2.11146253      -7.22690693       6.37650159
H        3.19645348      -7.24238270       6.32023499
C        1.45980842      -8.24056073       7.23113792
C        2.21137297      -9.32242857       7.70092886
C        1.61383887     -10.29377904       8.50637248
C        0.26722266     -10.19961636       8.86749442
C       -0.49177480      -9.12285188       8.41395119
C        0.10467803      -8.16104766       7.60350812
O       -0.67636192      -7.12019890       7.16309198
C        1.20969708      -2.78516411       2.58600196
H        3.63000345      -0.82466439       1.18195559
H        5.06054328      -2.26988930       2.62151297
H        3.56206882      -4.77819196       4.61661557
H        3.25592821      -9.39630212       7.41430624
H       -0.19704151     -10.95471577       9.49115810
H       -1.53852240      -9.02089452       8.67335256
H       -0.02896013      -6.62472746       6.55154906
H        0.13579836      -2.94091644       2.58548082
C        2.39146944     -11.41340122       8.97041652
C        3.04273504     -12.35108480       9.35905340
Br       4.09577643     -13.86723984       9.98744637
C       -0.00445707       0.01189536      -1.78238275
H       -0.66409135       0.67374010      -2.43557963
H        0.65740317      -0.63156657      -2.45157240
C       -0.90989263      -0.90692880      -0.91072765
C        0.90977584       0.90977584      -0.90977584
C       -0.00465871       1.77757030       0.00794375
H       -0.66225468       2.44313916      -0.64384735
H        0.64322798       2.43503045       0.67728295
C       -1.78241447       0.00034974      -0.00472694
H       -2.45427497      -0.65498947       0.64260836
H       -2.43311707       0.67328779      -0.65473579
C       -0.91132561       0.90220522       0.91563759
C       -0.01476271      -0.02253852       1.78660255
H       -0.67934791      -0.69751639       2.42135241
H        0.63392994       0.61504881       2.47327442
C        0.01484550      -1.77751727      -0.01636693
H        0.67870853      -2.42144646      -0.68295456
H       -0.62264859      -2.45592969       0.64226336
C        1.78714474       0.01002794       0.00389507
H        2.44202412       0.67113390       0.66197326
H        2.45385902      -0.65136977      -0.64189061
C        0.91606151      -0.90478549       0.90901405
