174
Properties=species:S:1:pos:R:3 pbc="F F F"
O        3.06126722       2.98262434      -9.82178235
C        3.51761936       2.82128530      -8.68661866
N        2.66570164       2.68697694      -7.61995617
N        3.10543193       2.72303208      -6.27412503
C        2.07260125       2.70816929      -5.42394642
H        1.02123102       2.68817702      -5.69896720
C        2.35345304       2.65961440      -3.98162051
C        3.41235786       3.37278443      -3.40258568
C        3.66411742       3.29091889      -2.03037221
C        2.85571211       2.49308470      -1.22280213
C        1.79290423       1.79290423      -1.79290423
C        1.53389417       1.87984764      -3.16019759
C        5.01650312       2.80116405      -8.44334202
C        5.57115075       1.61622722      -7.66738420
C        5.05703175       0.27523170      -8.14531450
O        5.74465888      -0.41150383      -8.90038274
N        3.82480805      -0.06189816      -7.62188198
C        3.15589924      -1.29970178      -7.74050284
C        1.85523859      -1.38346875      -7.23261213
C        1.13599597      -2.57972150      -7.30027160
C        1.71436244      -3.71217794      -7.87219818
C        3.01231034      -3.63582667      -8.37057411
Br       3.80866646      -5.17402014      -9.13446614
C        3.73301958      -2.44084489      -8.30716496
H        1.67844385       2.80610346      -7.81371266
H        4.04639886       3.99221391      -4.03367276
H        4.49473971       3.84406773      -1.60243829
H        3.06312257       2.41999381      -0.16006451
H        0.71153331       1.32450948      -3.60302347
H        5.30120390       3.73944385      -7.95339180
H        5.49225049       2.81137249      -9.43303718
H        5.38491079       1.70138777      -6.59200041
H        6.66369717       1.60658604      -7.76074110
H        3.32016248       0.71441077      -7.16418782
H        1.39203038      -0.50868701      -6.78195698
H        0.12450352      -2.62378806      -6.90483668
H        1.15323025      -4.64074782      -7.92327937
H        4.74513278      -2.42009891      -8.69539375
O       -9.56058003      -4.46651395      -1.83857994
C       -8.35592028      -4.69998179      -1.96962124
N       -7.44478721      -3.68211124      -1.84573629
N       -6.08055573      -3.82269871      -2.19933461
C       -5.43334436      -2.65477959      -2.11659300
H       -5.87264263      -1.70152746      -1.83420515
C       -3.98564818      -2.63673324      -2.37230653
C       -3.39479216      -3.41705937      -3.37587644
C       -2.01274458      -3.39106142      -3.58160252
C       -1.20732069      -2.58103473      -2.78324353
C       -1.79290423      -1.79290423      -1.79290423
C       -3.17248550      -1.81004001      -1.59141387
C       -7.86303795      -6.09786975      -2.30010150
C       -6.77714455      -6.67367599      -1.40394163
C       -7.04887806      -6.50408381       0.07538392
O       -7.51853810      -7.43875139       0.72375170
N       -6.68404653      -5.26594221       0.56519687
C       -6.65699788      -4.85568663       1.91598421
C       -6.37091920      -3.51180619       2.17834342
C       -6.31184981      -3.03549972       3.49080345
C       -6.53177280      -3.90277461       4.56016473
C       -6.80761494      -5.24333968       4.30389683
Br      -7.09202904      -6.42905892       5.75197549
C       -6.87027013      -5.72215032       2.99308080
H       -7.82353271      -2.75031577      -1.72441148
H       -4.02297797      -4.05297097      -3.99633659
H       -1.57329423      -4.00963504      -4.35831646
H       -0.13286334      -2.57452357      -2.93579398
H       -3.62443583      -1.20286590      -0.81176453
H       -7.53572591      -6.11220251      -3.34611113
H       -8.73825828      -6.75840934      -2.23999254
H       -5.78986256      -6.25833045      -1.63010596
H       -6.67978690      -7.74748357      -1.60375384
H       -6.48838325      -4.55365451      -0.15672331
H       -6.19528446      -2.82419782       1.35418192
H       -6.09326894      -1.98672583       3.67444262
H       -6.48501569      -3.53002381       5.57927770
H       -7.07699931      -6.77399506       2.83056674
O       -9.29533837       5.12185548       1.44848006
C       -8.09187885       5.23803994       1.69560452
N       -7.25800784       4.15777185       1.55685505
N       -5.92297370       4.14995289       2.02966246
C       -5.36679052       2.94042508       1.89750135
H       -5.85481517       2.05488110       1.49867897
C       -3.95306308       2.77565895       2.26596593
C       -3.39135527       3.41841974       3.37795296
C       -2.03908926       3.25549675       3.69082251
C       -1.23465111       2.44493579       2.89201205
C       -1.79290423       1.79290423       1.79290423
C       -3.14380185       1.94647253       1.48366501
C       -7.51917775       6.55655128       2.18528016
C       -6.31654648       7.10542311       1.43279258
C       -6.47087353       7.07940544      -0.07270101
O       -6.80566663       8.10047868      -0.67260752
N       -6.16518894       5.85744606      -0.63784313
C       -6.05336230       5.55607726      -2.01273925
C       -5.85420631       4.21775147      -2.36757581
C       -5.71922769       3.84492863      -3.70761025
C       -5.77471192       4.81106122      -4.71139046
C       -5.96343791       6.14569033      -4.36207046
Br      -6.02436506       7.46402942      -5.71928202
C       -6.10163272       6.52144448      -3.02373754
H       -7.69824076       3.27532921       1.32468998
H       -4.01824716       4.05489659       3.99914177
H       -1.62089809       3.76905544       4.55129220
H       -0.18160329       2.33246992       3.12910768
H       -3.57323429       1.44555926       0.62027271
H       -7.28430457       6.45831292       3.25142207
H       -8.32999650       7.29363286       2.11303080
H       -5.38927855       6.58870751       1.70031291
H       -6.15117528       8.14713633       1.73271269
H       -6.09104112       5.07519546       0.03252449
H       -5.80688835       3.45355262      -1.59514061
H       -5.57029094       2.79920458      -3.96394337
H       -5.66925116       4.51860728      -5.75209664
H       -6.23671150       7.57087805      -2.78716192
O        6.62457842      -0.86882472       8.37227077
C        6.44254224      -1.33763646       7.24534462
N        5.25211184      -1.12150018       6.59902271
N        4.88445342      -1.80426451       5.41387111
C        3.62647167      -1.51978671       5.05845858
H        2.94437109      -0.86700316       5.59700099
C        3.10918573      -2.08281281       3.80268941
C        3.41971225      -3.38410749       3.38390823
C        2.92658814      -3.88344314       2.17537724
C        2.11528913      -3.08314361       1.37316621
C        1.79290423      -1.79290423       1.79290423
C        2.27611303      -1.29534391       3.00248245
C        7.50818512      -2.18289435       6.56992973
C        7.91450723      -1.77961015       5.16064479
C        8.18018021      -0.29828282       4.99911492
O        9.33615713       0.12339592       5.02077659
N        7.03690930       0.44864703       4.79652960
C        6.95945664       1.81608271       4.45332636
C        5.69030777       2.40314796       4.41722216
C        5.53324072       3.74797641       4.07128177
C        6.64730265       4.52200546       3.74908549
C        7.91166038       3.93923293       3.77463033
Br       9.42662172       4.98086438       3.32335513
C        8.07251366       2.59598226       4.12280826
H        4.53439797      -0.63801712       7.12584487
H        4.05681110      -4.00751160       4.00796283
H        3.18589720      -4.89095586       1.86439267
H        1.74627311      -3.46869987       0.42820791
H        2.03182883      -0.28572976       3.32150768
H        7.18148729      -3.22910685       6.58344542
H        8.39962615      -2.12814305       7.20889096
H        7.17736308      -2.08839449       4.41254140
H        8.83135655      -2.31441281       4.88525495
H        6.15322046      -0.04601974       4.99952087
H        4.81208039       1.81105135       4.66427131
H        4.53937197       4.18769156       4.05387174
H        6.52238657       5.56693418       3.48030940
H        9.07045020       2.17213406       4.12211149
C       -0.00445707       0.01189536      -1.78238275
H       -0.66409135       0.67374010      -2.43557963
H        0.65740317      -0.63156657      -2.45157240
C       -0.90989263      -0.90692880      -0.91072765
C        0.90977584       0.90977584      -0.90977584
C       -0.00465871       1.77757030       0.00794375
H       -0.66225468       2.44313916      -0.64384735
H        0.64322798       2.43503045       0.67728295
C       -1.78241447       0.00034974      -0.00472694
H       -2.45427497      -0.65498947       0.64260836
H       -2.43311707       0.67328779      -0.65473579
C       -0.91132561       0.90220522       0.91563759
C       -0.01476271      -0.02253852       1.78660255
H       -0.67934791      -0.69751639       2.42135241
H        0.63392994       0.61504881       2.47327442
C        0.01484550      -1.77751727      -0.01636693
H        0.67870853      -2.42144646      -0.68295456
H       -0.62264859      -2.45592969       0.64226336
C        1.78714474       0.01002794       0.00389507
H        2.44202412       0.67113390       0.66197326
H        2.45385902      -0.65136977      -0.64189061
C        0.91606151      -0.90478549       0.90901405
