197
Properties=species:S:1:pos:R:3 pbc="F F F"
C        0.00000000       0.00000000       0.00000000
C        0.88180813       0.88180813      -0.88180813
C        0.57485193       2.23052665      -1.04082816
C        1.38399692       3.03825148      -1.84498728
C        2.51419899       2.50449656      -2.48439968
C        2.80632439       1.13952711      -2.30680346
C        1.99026216       0.32924656      -1.51492560
C        3.45583458       3.37076633      -3.31706627
H        4.23384697       2.72736948      -3.74876212
C        4.10704165       4.40480773      -2.39917889
H        3.33830324       5.14800342      -2.11549366
C        4.79070080       3.96993021      -1.10436932
C        5.72979658       5.12640488      -0.91275463
C        5.93297125       5.78268540      -2.06669845
C        5.21414163       5.09293846      -3.18676061
H        5.91127479       4.37104447      -3.63713792
C        4.57574325       5.85722477      -4.30771366
C        5.19259605       7.01812072      -4.81241907
C        4.66879807       7.66785341      -5.92453635
C        3.54229528       7.16428335      -6.55670504
C        2.93190908       6.00140689      -6.07207630
C        3.42065799       5.32308268      -4.94132686
N        2.81655443       4.07611490      -4.47812016
C        1.70102240       3.54020968      -5.14637054
O        0.74777058       4.20999576      -5.54525230
C        1.65559746       2.08291271      -5.43004767
C        0.41804918       1.42899972      -5.38894408
C        0.33167852       0.07225406      -5.70132657
C        1.47978703      -0.63241498      -6.06333774
C        2.71057650       0.02066423      -6.13340540
C        2.80033800       1.38158904      -5.83172699
H       -0.28855393       2.66433669      -0.54489792
H        1.12816156       4.09090190      -1.96444940
H        3.67244997       0.69071406      -2.79148144
H        2.23025204      -0.72378441      -1.40093685
H        4.07673049       3.89402828      -0.27852425
H        5.34405039       3.03055224      -1.20016554
H        6.18089249       5.38520611       0.03639115
H        6.59215927       6.63291542      -2.17350338
H        6.09591645       7.40549991      -4.34911720
H        3.13038540       7.65339255      -7.43528528
H        2.07025518       5.64491643      -6.62800650
H       -0.48123850       1.98017418      -5.12127812
H       -0.63146727      -0.43058136      -5.67034184
H        1.40919419      -1.68899784      -6.30938302
H        3.59816142      -0.52846706      -6.44004285
H        3.75501649       1.88861126      -5.93391130
C        5.31288964       8.84978086      -6.43619401
C        5.85231633       9.83964510      -6.86470729
Br       6.72452366      11.44017185      -7.55757703
C       -0.88180813      -0.88180813      -0.88180813
C       -0.79061058      -0.78765347      -2.26794270
C       -1.59509893      -1.59727677      -3.07485999
C       -2.48654238      -2.51685239      -2.49970046
C       -2.55946196      -2.59647582      -1.09671717
C       -1.76614667      -1.77790634      -0.29038131
C       -3.33279173      -3.46144675      -3.34942870
H       -3.97795869      -4.04902556      -2.68299431
C       -2.39894906      -4.40348240      -4.10859681
H       -1.88528178      -3.82049257      -4.89602596
C       -1.31475308      -5.18310268      -3.36714458
C       -1.12006984      -6.32188265      -4.32700360
C       -2.18496547      -6.46466913      -5.13272050
C       -3.25488616      -5.48578271      -4.75317182
H       -3.91590349      -5.97853892      -4.02501477
C       -4.12975683      -4.83104135      -5.77988350
C       -4.55887099      -5.55604232      -6.90822253
C       -5.46101019      -4.99494182      -7.80523582
C       -5.95947145      -3.72035137      -7.58346084
C       -5.55131105      -2.99842760      -6.45565361
C       -4.62919897      -3.52320530      -5.53266326
N       -4.25510469      -2.79010198      -4.32558281
C       -4.79526031      -1.51554166      -4.07680065
O       -4.92648369      -0.64188265      -4.93465229
C       -5.27415672      -1.18397162      -2.71042949
C       -5.11905736       0.12729506      -2.24423068
C       -5.60452972       0.48592244      -0.98665186
C       -6.25315920      -0.46218553      -0.19536507
C       -6.43547621      -1.76254775      -0.66662217
C       -5.96041159      -2.12364545      -1.92959698
H       -0.09857607      -0.09063331      -2.73147130
H       -1.51663739      -1.50860557      -4.15826990
H       -3.24314711      -3.29523238      -0.61626599
H       -1.84732044      -1.85027499       0.79019095
H       -0.39976143      -4.59313930      -3.25638229
H       -1.63707661      -5.54998861      -2.38770295
H       -0.23362235      -6.94223196      -4.35385315
H       -2.27804543      -7.23575443      -5.88477821
H       -4.20406301      -6.56904867      -7.07742188
H       -6.67597263      -3.27483580      -8.26825481
H       -5.99902694      -2.01792209      -6.32622908
H       -4.62660462       0.87234773      -2.86595691
H       -5.48392366       1.50555693      -0.62992648
H       -6.63336796      -0.17925291       0.78304149
H       -6.96365346      -2.49091997      -0.05516377
H       -6.14840310      -3.12547268      -2.30366326
C       -5.89847796      -5.74905519      -8.95133136
C       -6.26485721      -6.38062514      -9.91118637
Br      -6.85726147      -7.40182034     -11.46319074
C       -0.88180813       0.88180813       0.88180813
C       -2.23016180       0.57392328       1.04212167
C       -3.03626486       1.37894042       1.85203040
C       -2.49492484       2.48983624       2.51833415
C       -1.12913722       2.77987916       2.34363858
C       -0.32683360       1.98412048       1.52348024
C       -3.33017226       3.35251121       3.46098371
H       -2.70609146       4.17968839       3.82419871
C       -3.77105049       2.49395022       4.64602756
H       -4.53496863       1.77795631       4.28887538
C       -2.74800029       1.68054353       5.43645653
C       -3.48286943       1.54653401       6.73955265
C       -4.43022270       2.49057113       6.86156127
C       -4.38796899       3.41979494       5.68607676
H       -3.72036687       4.25511624       5.94397408
C       -5.63458127       4.00905257       5.09704784
C       -6.70153657       4.38679985       5.93479942
C       -7.81279841       5.03772408       5.41066535
C       -7.86910428       5.33626391       4.05791548
C       -6.80582490       4.97938045       3.22018691
C       -5.67113380       4.30654653       3.70738720
N       -4.53813372       3.99252300       2.84013277
C       -4.57530621       4.33563584       1.47666057
O       -5.56140693       4.18749423       0.75411747
C       -3.37526152       4.94499072       0.84830559
C       -3.08629184       4.63632637      -0.48662522
C       -1.99731705       5.23150833      -1.12356624
C       -1.19945335       6.14241005      -0.43115360
C       -1.49963292       6.47497013       0.89004308
C       -2.59529481       5.88956248       1.52879673
H       -2.66452942      -0.28806336       0.54421462
H       -4.09111505       1.12870409       1.96369371
H       -0.67659292       3.63650769       2.84154486
H        0.72239975       2.23377641       1.39602782
H       -2.56887388       0.70383774       4.97657140
H       -1.79571012       2.20102794       5.57803011
H       -3.26560539       0.78590914       7.47819293
H       -5.06602231       2.60397312       7.72858265
H       -6.65702926       4.19084695       7.00265735
H       -8.72475638       5.85730935       3.63699750
H       -6.90032078       5.26561433       2.17724301
H       -3.71616097       3.93733888      -1.03328605
H       -1.77825417       4.99064390      -2.16060486
H       -0.35322711       6.60723432      -0.93088205
H       -0.88835851       7.20438325       1.41699544
H       -2.84545933       6.19046549       2.54161423
C       -8.89422935       5.42602363       6.27861153
C       -9.79992777       5.75122450       7.00551645
Br     -11.26436551       6.27704680       8.18086023
C        0.88180813      -0.88180813       0.88180813
C        0.58982528      -2.23610650       1.02027497
C        1.39901415      -3.04376910       1.82445243
C        2.51444609      -2.50412483       2.48452431
C        2.79162668      -1.13352884       2.32749943
C        1.97533771      -0.32355030       1.53554631
C        3.45648568      -3.36904142       3.31814009
H        4.22097871      -2.72152717       3.76747268
C        4.13189777      -4.38337038       2.39576013
H        3.37609634      -5.13240713       2.09329684
C        4.82602110      -3.92388560       1.11509364
C        5.78182666      -5.06616428       0.92096515
C        5.97891536      -5.73428310       2.06915664
C        5.23770260      -5.06756402       3.18857408
H        5.92011466      -4.34279928       3.65654324
C        4.59510955      -5.85366908       4.29190304
C        5.22016385      -7.01307607       4.78989592
C        4.69082794      -7.68311696       5.88724293
C        3.55037240      -7.20147797       6.51143330
C        2.93151055      -6.04026225       6.03361947
C        3.42567518      -5.34183446       4.91755789
N        2.81177674      -4.09673105       4.46228170
C        1.68143892      -3.58307813       5.12308558
O        0.73178973      -4.26954835       5.50168054
C        1.61425904      -2.13012199       5.42417681
C        0.36922064      -1.49110419       5.37566814
C        0.26200571      -0.13954983       5.70370360
C        1.39663209       0.57467807       6.08875577
C        2.63454400      -0.06395246       6.16614967
C        2.74506917      -1.41977745       5.84880741
H       -0.26187852      -2.67431820       0.50824100
H        1.15492526      -4.10091741       1.92767019
H        3.64600106      -0.68014187       2.82850255
H        2.20351111       0.73371393       1.43760731
H        4.12142659      -3.84648354       0.28137289
H        5.36633409      -2.97900802       1.22942606
H        6.24783529      -5.30745710      -0.02558493
H        6.64732929      -6.57756484       2.17368395
H        6.13392737      -7.38341808       4.33318812
H        3.13378432      -7.70661111       7.37866780
H        2.05864813      -5.70144894       6.58308104
H       -0.51971308      -2.04996504       5.08996184
H       -0.70690562       0.35168148       5.66688030
H        1.30977273       1.62714221       6.34694885
H        3.51132027       0.49223264       6.49064957
H        3.70468621      -1.91619143       5.95666141
C        5.34329421      -8.86330232       6.39226798
C        5.88973471      -9.85170755       6.81522646
Br       6.77328278     -11.44987521       7.49911455
