161
Properties=species:S:1:pos:R:3 pbc="F F F"
C        0.00000000       0.00000000       0.00000000
N        2.53826865       6.70982940      -6.57869781
C        2.95529836       6.03269551      -5.74659208
C        3.46471511       5.20555218      -4.73014509
C        2.79952749       4.08173620      -4.34302529
N        1.58723834       3.72849213      -4.93711681
N        3.38932744       3.21947527      -3.37054305
C        2.54611686       2.40823266      -2.50990077
C        1.27538198       2.87911759      -2.13050660
C        0.43370698       2.10828267      -1.32207466
C        0.87694773       0.87694773      -0.87694773
C        2.14271655       0.47448336      -1.25140262
N        2.96763737       1.20738973      -2.04218827
C        4.80569517       3.23316853      -3.21372052
C        5.50904532       4.33036173      -3.58004865
C        6.99147192       4.38925745      -3.44724184
O        7.61553505       5.36175381      -3.86749125
C        7.69418530       3.25611432      -2.74667762
C        7.00775492       1.94870866      -3.07823678
C        5.52778866       1.99751453      -2.70418088
C        4.83130684       5.55286728      -4.16336491
H        5.43871355       5.83908513      -5.03794213
C        4.80821862       6.75874475      -3.23103052
S        3.95368734       6.71545773      -1.73788843
C        4.40183295       8.32298147      -1.35820250
C        5.18137544       8.86907834      -2.34504699
Br       5.88411635      10.61774946      -2.31353563
C        5.42409614       7.98377160      -3.42247894
H        1.39390534       4.15952671      -5.83926762
H        1.47703405       2.71621171      -4.97973626
H        0.92556834       3.85642345      -2.45226744
H       -0.54942757       2.48513551      -1.05397807
H        2.55493917      -0.47627321      -0.92562062
H        8.73305630       3.21877769      -3.09024212
H        7.69002143       3.45229521      -1.66941527
H        7.49702795       1.12020046      -2.55363818
H        7.10206091       1.74558500      -4.15365162
H        5.43168300       1.94715860      -1.61270489
H        5.08359621       1.09469220      -3.13826960
H        4.07249771       8.77955067      -0.43507546
H        6.02372240       8.21745312      -4.29513054
N       -8.00355056      -4.11835686      -3.70488844
C       -6.87379556      -3.98257711      -3.87821329
C       -5.49375929      -3.81671728      -4.08993580
C       -4.65981672      -3.50556698      -3.05890528
N       -5.15589076      -3.33059371      -1.76636282
N       -3.25398205      -3.43147235      -3.29389135
C       -2.42370121      -2.56500941      -2.47553967
C       -2.95878165      -1.37267979      -1.95354473
C       -2.18875589      -0.53199306      -1.14331536
C       -0.87694773      -0.87694773      -0.87694773
C       -0.39053937      -2.04019144      -1.43787172
N       -1.12780556      -2.87043713      -2.21897268
C       -2.70427500      -4.15973029      -4.38857892
C       -3.49377313      -4.48727663      -5.43840593
C       -2.96973307      -5.25773377      -6.60050438
O       -3.72645669      -5.61826255      -7.50006087
C       -1.49150546      -5.53897772      -6.66649407
C       -0.96035845      -5.80063196      -5.27370994
C       -1.25905141      -4.62586566      -4.34456700
C       -4.95893675      -4.10590894      -5.48269334
H       -5.49149340      -5.01418189      -5.81006552
C       -5.28986767      -3.01420349      -6.49392274
S       -4.64604395      -1.42620582      -6.33478373
C       -5.44606919      -0.88811199      -7.74883574
C       -6.17905718      -1.89591422      -8.32052938
Br      -7.20676791      -1.71810911      -9.89052443
C       -6.09692138      -3.11958889      -7.61383641
H       -6.07414920      -3.73233227      -1.58621819
H       -4.47798534      -3.62877881      -1.06621787
H       -3.98044011      -1.07703626      -2.17678286
H       -2.62711158       0.37602490      -0.73859933
H        0.63465422      -2.36150029      -1.27744050
H       -1.32804276      -6.42380447      -7.29022887
H       -0.99174282      -4.68482223      -7.13516685
H        0.11979834      -5.98255363      -5.30811129
H       -1.42429197      -6.70964921      -4.86735635
H       -0.60088881      -3.78741444      -4.60324325
H       -1.00518358      -4.97427472      -3.33709971
H       -5.33573941       0.13360614      -8.08499057
H       -6.59249804      -4.03908117      -7.90472685
N       -8.00611963       3.73083421       4.08984201
C       -6.85755069       3.71415148       4.16288378
C       -5.45453254       3.69377292       4.25210692
C       -4.68949722       3.35865758       3.17613418
N       -5.27943571       3.01408077       1.95933079
N       -3.26783730       3.43381971       3.27768875
C       -2.43294024       2.56884743       2.46246261
C       -2.89288644       1.28804910       2.10407062
C       -2.11951608       0.44404152       1.30050671
C       -0.87694773       0.87694773       0.87694773
C       -0.45891239       2.12839151       1.28129863
N       -1.20138929       2.96211707       2.05370901
C       -2.69670831       4.31216064       4.24371526
C       -3.41762280       4.66934060       5.33249230
C       -2.87005559       5.59383135       6.36408428
O       -3.57514132       5.97188112       7.29775768
C       -1.42660743       6.01106923       6.25930059
C       -1.05021033       6.18115132       4.80333870
C       -1.31394086       4.89891219       4.01663102
C       -4.82844856       4.16485361       5.55423686
H       -5.41620126       5.04966738       5.84987217
C       -4.95901017       3.15249258       6.68649114
S       -4.17924214       1.62041096       6.60738040
C       -4.79311070       1.15441025       8.13549597
C       -5.56747274       2.14395292       8.68407512
Br      -6.42844717       2.03002755      10.35692672
C       -5.66926317       3.29478667       7.86629683
H       -6.24508869       3.31258785       1.83502313
H       -4.69931098       3.30145257       1.17221847
H       -3.85656150       0.92569534       2.45200238
H       -2.50102257      -0.53481174       1.02347518
H        0.51135633       2.52266328       0.99297962
H       -1.29572910       6.96388341       6.78246359
H       -0.80558383       5.25509075       6.75105732
H        0.00561359       6.46129765       4.71518252
H       -1.63554078       7.00082205       4.36493470
H       -0.55621162       4.15203478       4.28330009
H       -1.18647699       5.16803669       2.96204434
H       -4.55346548       0.18456925       8.54908911
H       -6.22472173       4.19044249       8.12114184
N        2.82324536      -7.55700177       5.44654872
C        3.20561235      -6.60590150       4.92307210
C        3.67268735      -5.44409840       4.28362664
C        2.82328041      -4.42456729       3.97644128
N        1.46343289      -4.51210185       4.27731254
N        3.34687703      -3.22481396       3.40765476
C        2.51609429      -2.40683550       2.54132051
C        1.53273095      -3.01396659       1.73830862
C        0.70338232      -2.24785016       0.91283184
C        0.87694773      -0.87694773       0.87694773
C        1.87539848      -0.33371948       1.65948456
N        2.68239408      -1.06296913       2.47185216
C        4.71284946      -2.89498807       3.64474669
C        5.59518995      -3.87577681       3.94848893
C        7.03041994      -3.58094752       4.21660375
O        7.79286444      -4.47624993       4.57566574
C        7.52836782      -2.17743848       3.99117095
C        6.45672002      -1.18657475       4.39140559
C        5.16052749      -1.44340047       3.62555610
C        5.16992139      -5.32580360       4.05181404
H        5.63298253      -5.70485316       4.97790512
C        5.67521755      -6.20737371       2.91540263
S        5.17760591      -5.93951032       1.28991728
C        6.11788172      -7.24927096       0.71586423
C        6.78973463      -7.86642510       1.73934105
Br       7.93378804      -9.34990687       1.53170654
C        6.54743811      -7.27882883       3.00407974
H        1.20887500      -5.20407215       4.97975253
H        1.07431040      -3.59721578       4.50145584
H        1.40351033      -4.09300694       1.73774196
H       -0.05937539      -2.73629095       0.31277045
H        2.07128797       0.73471816       1.66771677
H        8.42025234      -2.01640927       4.60541449
H        7.80611339      -2.06795040       2.93766811
H        6.80040827      -0.16219437       4.20826394
H        6.26205175      -1.26996233       5.46928345
H        5.28762190      -1.11815379       2.58577081
H        4.40506512      -0.80892260       4.10257029
H        6.12905278      -7.49507687      -0.33700581
H        6.98924612      -7.60970204       3.93735790
