193
Properties=species:S:1:pos:R:3 pbc="F F F"
C        0.00000000       0.00000000       0.00000000
N        2.43157817       6.26960438      -6.98930180
C        2.87449846       5.69494572      -6.09576217
C        3.41554148       4.99297956      -5.00427147
C        2.80847930       3.88054853      -4.50612442
N        1.65399260       3.37524051      -5.10514386
N        3.39090272       3.19895260      -3.39112949
C        2.54947041       2.40415429      -2.51112324
C        1.22772722       2.80807007      -2.25327361
C        0.38406516       2.03686754      -1.44634576
C        0.87724200       0.87724200      -0.87724200
C        2.19164738       0.54494079      -1.13184771
N        3.01711721       1.27560967      -1.92328748
C        4.78315737       3.37426239      -3.12509847
C        5.42434978       4.46265001      -3.60572375
C        6.87932122       4.68802343      -3.37132839
O        7.45889506       5.61865049      -3.92469895
C        7.60052912       3.77984616      -2.40969985
C        7.08267911       2.34251717      -2.49807148
C        7.47035359       1.70727100      -3.84991309
C        7.72442239       1.50492851      -1.37672412
C        5.54654068       2.33156925      -2.32184569
C        4.70519058       5.52671787      -4.40750320
H        5.35389126       5.74522858      -5.27190352
C        4.51143232       6.83923292      -3.65111312
S        3.60898130       6.89458233      -2.18531017
C        3.85532792       8.57923336      -2.01813436
C        4.60061741       9.07856905      -3.05467273
C        4.98597004       8.09306593      -3.99600452
H        1.48634470       3.67384646      -6.06377479
H        1.60279279       2.36091913      -5.01882857
H        0.83580883       3.72973111      -2.67660111
H       -0.64148697       2.35548210      -1.27743647
H        2.64525429      -0.34549752      -0.70424351
H        8.67207612       3.81171512      -2.64076897
H        7.46415249       4.19339520      -1.40312984
H        7.02318913       2.23217236      -4.70113563
H        7.13876282       0.66271774      -3.90178556
H        8.55768804       1.71403752      -3.99140182
H        7.49901716       1.92360184      -0.38886123
H        8.81497455       1.47204837      -1.48145223
H        7.35474800       0.47296611      -1.39168974
H        5.29850042       2.47773951      -1.26224718
H        5.22005531       1.32817929      -2.61336912
H        3.44163528       9.11126200      -1.17316659
H        5.58417392       8.28026366      -4.88078561
C        4.97410022      10.46138239      -3.20278707
C        5.28689207      11.61948856      -3.32683283
Br       5.79265005      13.49204829      -3.52740433
N       -8.03310154      -4.16213930      -3.49524352
C       -6.90470522      -4.06166383      -3.69883731
C       -5.52632863      -3.93892944      -3.94753444
C       -4.65883197      -3.57222710      -2.96409318
N       -5.11302732      -3.35932355      -1.66202610
N       -3.26429858      -3.45502826      -3.26165797
C       -2.42770404      -2.57258033      -2.46446357
C       -2.96144891      -1.37824148      -1.94938052
C       -2.19035602      -0.53468701      -1.14223543
C       -0.87724200      -0.87724200      -0.87724200
C       -0.39105144      -2.04063215      -1.43675229
N       -1.13101837      -2.87522638      -2.20976963
C       -2.73701626      -4.15781280      -4.38768917
C       -3.56546921      -4.54392522      -5.38332911
C       -3.07163254      -5.29311894      -6.57392156
O       -3.86539591      -5.73838523      -7.39846337
C       -1.58442222      -5.44610812      -6.75954480
C       -0.86732768      -5.63504107      -5.42089900
C       -1.22832119      -7.00034892      -4.79886756
C        0.65426321      -5.60555692      -5.65478131
C       -1.25349578      -4.48860190      -4.45785793
C       -5.04737369      -4.23479889      -5.35723908
H       -5.55714383      -5.16931928      -5.64456026
C       -5.46969009      -3.16746782      -6.36462045
S       -4.82063800      -1.57377110      -6.29446470
C       -5.73851547      -1.06766484      -7.64651533
C       -6.51737658      -2.08725917      -8.12922344
C       -6.37160249      -3.29665760      -7.40678040
H       -6.01118403      -3.78002888      -1.43275304
H       -4.40218746      -3.60593727      -0.97441576
H       -3.98557383      -1.08687329      -2.16969393
H       -2.62890318       0.37317244      -0.73570086
H        0.63589347      -2.36028193      -1.27961182
H       -1.40382084      -6.30915299      -7.41158639
H       -1.22561605      -4.55180122      -7.28326026
H       -2.29679773      -7.08660753      -4.57309187
H       -0.68396073      -7.15960906      -3.85969634
H       -0.96559983      -7.82322857      -5.47429898
H        0.96742419      -4.66198551      -6.11691892
H        0.96897557      -6.41954051      -6.31791021
H        1.20245188      -5.71062105      -4.71123468
H       -0.71965487      -3.57325073      -4.74558149
H       -0.89588497      -4.79583475      -3.46988400
H       -5.65912372      -0.05397102      -8.01296914
H       -6.89123983      -4.22109226      -7.63289110
C       -7.40572642      -1.97551335      -9.25702991
C       -8.14971941      -1.88192623     -10.20156783
Br      -9.35269314      -1.73060376     -11.72880576
N       -7.98841964       3.30554983       4.39651489
C       -6.84872150       3.46116263       4.35532222
C       -5.45653935       3.65124926       4.30500390
C       -4.72308820       3.23688823       3.23517582
N       -5.34733182       2.65674836       2.13029679
N       -3.30777557       3.44623629       3.22697294
C       -2.45365601       2.57464071       2.43645122
C       -2.78920580       1.21813525       2.28172986
C       -2.00835597       0.36956779       1.48935470
C       -0.87724200       0.87724200       0.87724200
C       -0.57212052       2.20546755       1.09084781
N       -1.32738876       3.04344550       1.84518010
C       -2.75613493       4.46885607       4.05752724
C       -3.45437016       4.91166641       5.12668697
C       -2.93342046       5.98715247       6.01810011
O       -3.64300841       6.45433383       6.90490227
C       -1.51074450       6.44675152       5.83257912
C       -1.11129272       6.45663436       4.35534067
C       -1.87803594       7.55718300       3.59231874
C        0.39422515       6.75875348       4.24154670
C       -1.39813536       5.07191448       3.72990578
C       -4.80766437       4.33957108       5.49217620
H       -5.45376945       5.20569208       5.71156184
C       -4.78743245       3.46814658       6.74619932
S       -3.81981470       2.04554408       6.82351501
C       -4.33747621       1.69850769       8.41671174
C       -5.22463749       2.64099614       8.86822555
C       -5.48956588       3.66215980       7.92331481
H       -6.34355795       2.84382169       2.03658631
H       -4.84808760       2.86745153       1.26700136
H       -3.66344074       0.80210195       2.77659835
H       -2.29757421      -0.67093158       1.36478898
H        0.30996371       2.66332228       0.65064171
H       -1.41349177       7.45264359       6.25842485
H       -0.87020764       5.77440037       6.41606952
H       -2.96123160       7.39389629       3.60136924
H       -1.56432202       7.59720452       2.54173959
H       -1.68887067       8.54489137       4.02936534
H        0.99094906       6.01704587       4.78538342
H        0.63290788       7.74466051       4.65672251
H        0.72302158       6.74662020       3.19580523
H       -0.62839864       4.35815998       4.05192848
H       -1.30540619       5.20847580       2.64772173
H       -3.96612529       0.82547067       8.93446791
H       -6.15400835       4.50302988       8.08818496
C       -5.84385218       2.62620943      10.16820806
C       -6.36244449       2.61382556      11.25694341
Br      -7.20096438       2.59380190      13.01733639
N        2.78334135      -7.68375275       5.22339025
C        3.16979149      -6.67872974       4.81668512
C        3.64185420      -5.45105809       4.31988023
C        2.78476703      -4.45931164       3.95107358
N        1.40748360      -4.61848574       4.10840763
N        3.30775757      -3.22698431       3.44624293
C        2.49759154      -2.40870398       2.55845241
C        1.61709740      -3.02196831       1.65000519
C        0.79424375      -2.25612043       0.81691428
C        0.87724200      -0.87724200       0.87724200
C        1.78339442      -0.32587460       1.75916686
N        2.57760912      -1.05561049       2.58279477
C        4.64971151      -2.86164962       3.77115711
C        5.53058954      -3.81546232       4.14667168
C        6.93871320      -3.48858005       4.51137979
O        7.67775826      -4.35677873       4.96770751
C        7.43816098      -2.08915263       4.26276152
C        6.34817650      -1.04801623       4.52707503
C        6.01610860      -0.97894226       6.03248681
C        6.85616250       0.33739478       4.08730730
C        5.08147518      -1.40371327       3.71476717
C        5.14628896      -5.27831975       4.21480294
H        5.54682491      -5.65279318       5.17140527
C        5.76611879      -6.12811548       3.10754409
S        5.44007229      -5.80025046       1.44855105
C        6.42775016      -7.09661100       0.92833448
C        6.98291118      -7.75779771       1.99315029
C        6.61519854      -7.21242784       3.24741410
H        1.11806501      -5.33671693       4.76918401
H        0.94951328      -3.72912401       4.30390320
H        1.55950686      -4.10532594       1.57730824
H        0.10436511      -2.74989783       0.13716867
H        1.90843877       0.75037788       1.84593938
H        8.30117938      -1.90854455       4.91483628
H        7.78980641      -2.04603590       3.22483522
H        5.61665345      -1.92435253       6.41549115
H        5.26576552      -0.20411381       6.23338681
H        6.90748819      -0.73357686       6.62206234
H        7.12857866       0.34245856       3.02536013
H        7.74369281       0.63347246       4.65825479
H        6.08933068       1.10649746       4.23657063
H        5.23721461      -1.14125672       2.66001577
H        4.28446018      -0.76631697       4.11082657
H        6.54728883      -7.30434862      -0.12557358
H        6.95317802      -7.58347386       4.20857131
C        7.85800061      -8.89618397       1.88408509
C        8.59088801      -9.84958246       1.79274299
Br       9.77590495     -11.39114718       1.64505053
