177
Properties=species:S:1:pos:R:3 pbc="F F F"
C        0.00000000       0.00000000       0.00000000
C        0.88263017       0.88263017      -0.88263017
C        1.00458959       0.59385362      -2.23572395
C        1.80186842       1.38903095      -3.06338875
C        2.46293842       2.49069324      -2.49392604
N        3.27361516       3.45844234      -3.05654571
C        3.58253598       3.56400822      -4.47332936
C        2.75222215       4.63161724      -5.20348314
H        2.91259200       5.59674508      -4.70755038
O        3.25923710       4.80016778      -6.53700633
C        1.23090052       4.38935994      -5.22854088
N        0.78850277       3.19080226      -5.92447862
N        1.62701522       2.56782698      -6.78255429
C        0.90951168       1.54811105      -7.26768169
C        1.50171125       0.60804194      -8.24925927
C       -0.39915272       1.54013022      -6.74229354
C       -0.45814144       2.61594985      -5.88200290
C       -1.59345147       3.12504614      -5.07407340
C        3.73850895       4.33188280      -2.08969464
C        4.60294731       5.43724048      -2.17858384
C        4.88243235       6.15385047      -1.01087379
C        4.31607472       5.77895734       0.20214251
Br       4.70858747       6.77306140       1.76343459
C        3.46009219       4.67772124       0.28843503
C        3.16696382       3.93861463      -0.87747853
C        2.36075188       2.78691776      -1.13321346
C        1.55478063       1.96694325      -0.31371275
H        0.48247786      -0.25728196      -2.66862138
H        1.89535665       1.14539100      -4.11817331
H        3.48781765       2.57744404      -4.93412879
H        4.64966318       3.80465652      -4.55759932
H        2.95334471       4.00803761      -7.03751211
H        0.74132518       5.21884217      -5.75131112
H        0.84013542       4.34482112      -4.20731999
H        0.97010705      -0.34939255      -8.24256976
H        2.55276399       0.40907964      -8.01762302
H        1.44205271       1.02614388      -9.25903133
H       -1.19900778       0.84970880      -6.97159216
H       -2.29048901       2.31257913      -4.83784781
H       -2.14277924       3.88916276      -5.63492818
H       -1.26636440       3.55788651      -4.12605706
H        5.05169022       5.73660188      -3.12155546
H        5.55035452       7.00981972      -1.06389853
H        3.02461713       4.38677413       1.24015240
H        1.46355901       2.18229183       0.74653956
C       -0.88263017      -0.88263017      -0.88263017
C       -0.47274657      -2.17429941      -1.18712117
C       -1.26483986      -3.00136531      -1.98808293
C       -2.48719486      -2.49672750      -2.46363534
N       -3.47846726      -3.08020485      -3.22993110
C       -3.47308781      -4.46068878      -3.68609697
C       -4.35861468      -5.38901142      -2.83969643
H       -5.38138113      -4.99268005      -2.84282628
O       -4.44660252      -6.67413960      -3.47566910
C       -3.94302936      -5.54177477      -1.36399721
N       -2.63694081      -6.13796163      -1.12888121
N       -2.02923357      -6.82900799      -2.11915492
C       -0.89004449      -7.26543335      -1.56982658
C        0.07175689      -8.06753356      -2.36323579
C       -0.78655520      -6.87923537      -0.21748047
C       -1.93094865      -6.15792783       0.04906518
C       -2.38711875      -5.53380432       1.31525500
C       -4.49356562      -2.17689895      -3.48962182
C       -5.67542490      -2.30244828      -4.24089846
C       -6.53493583      -1.20172758      -4.31049319
C       -6.22394156      -0.01820415      -3.65074383
Br      -7.41083570       1.45134185      -3.75872043
C       -5.04685454       0.10517392      -2.90769777
C       -4.16373953      -0.99259987      -2.82671758
C       -2.90747457      -1.19635651      -2.17705202
C       -2.08904977      -0.37541749      -1.37096938
H        0.47221053      -2.55836085      -0.80766696
H       -0.92683090      -4.00631466      -2.22577540
H       -2.44022565      -4.81313848      -3.74602635
H       -3.82406080      -4.46224742      -4.72561080
H       -3.57771330      -7.10962277      -3.31155836
H       -4.65334935      -6.20312540      -0.85500372
H       -3.95890292      -4.56751809      -0.86585552
H        1.07786493      -8.00604183      -1.93510736
H        0.12471325      -7.70839118      -3.39578873
H       -0.23128345      -9.11919506      -2.37674940
H        0.01045467      -7.10886260       0.47611474
H       -1.52886887      -5.27895970       1.94789064
H       -3.02212950      -6.23144277       1.87226058
H       -2.94916858      -4.61292470       1.14451410
H       -5.92598565      -3.22253110      -4.76133080
H       -7.45159476      -1.28347987      -4.88899816
H       -4.80701770       1.03429630      -2.39851747
H       -2.39991977       0.63839576      -1.13778727
C       -0.88263017       0.88263017       0.88263017
C       -1.35911407       0.38600174       2.08905135
C       -2.16366976       1.17569969       2.91491865
C       -2.46487811       2.48380572       2.49887386
N       -3.19049868       3.49020376       3.10790077
C       -3.78796619       3.40150261       4.43040476
C       -2.96361896       4.10052581       5.52317776
H       -2.82760028       5.15099244       5.23829473
O       -3.72013879       4.13226381       6.74400862
C       -1.55852532       3.51916709       5.77110894
N       -1.51293240       2.14478599       6.24606525
N       -2.62381941       1.58175450       6.77182258
C       -2.23447987       0.35469480       7.13612974
C       -3.19590506      -0.59015262       7.75326001
C       -0.86500685       0.14657405       6.87169014
C       -0.41623469       1.31996831       6.30360830
C        0.94629731       1.69756349       5.85440188
C       -3.25577055       4.60836962       2.29594623
C       -3.90014478       5.84543766       2.47318918
C       -3.77126444       6.80836328       1.46752889
C       -3.02314192       6.54370053       0.32604709
Br      -2.86223737       7.86984875      -1.01387184
C       -2.38668927       5.31201664       0.15067248
C       -2.50623625       4.32480736       1.15201337
C       -2.00421417       2.99343966       1.28322928
C       -1.19774165       2.17655425       0.46114072
H       -1.11392070      -0.62591511       2.40581169
H       -2.53698807       0.77047813       3.85145476
H       -3.98274421       2.35186242       4.66478385
H       -4.78369977       3.85826692       4.36995234
H       -3.68628189       3.21343156       7.09918098
H       -1.05672612       4.10571493       6.54903741
H       -0.96129736       3.57516072       4.85581845
H       -2.86142077      -1.62531012       7.62717361
H       -4.18520958      -0.49961916       7.29387624
H       -3.29120640      -0.38887970       8.82490121
H       -0.27850292      -0.73728130       7.08107155
H        1.51765998       0.80563255       5.57196535
H        1.48463026       2.20105307       6.66488888
H        0.92779387       2.35957418       4.98579886
H       -4.48836604       6.06068464       3.36079688
H       -4.26525175       7.76888862       1.58993241
H       -1.80763295       5.10943074      -0.74582482
H       -0.83053805       2.55623075      -0.48745751
C        0.88263017      -0.88263017       0.88263017
C        2.26059199      -0.70939771       0.86417746
C        3.08749959      -1.50105687       1.66573165
C        2.48805313      -2.46340600       2.49609857
N        3.03298383      -3.34896705       3.40665232
C        4.44378174      -3.42672149       3.74937033
C        4.79284363      -2.72366775       5.07081116
H        4.18371401      -3.16285041       5.87032304
O        6.15376225      -3.01950536       5.42314361
C        4.54290675      -1.20370623       5.10218837
N        5.32605080      -0.41033423       4.16739862
N        6.43274437      -0.94250933       3.60214277
C        6.92527182       0.04282385       2.84285645
C        8.15396382      -0.16527185       2.03977679
C        6.14922066       1.21545723       2.94950761
C        5.12474927       0.90246865       3.81753068
C        4.02425593       1.75270828       4.33412041
C        2.04900432      -4.14282386       3.96825821
C        2.12526857      -5.18952240       4.90398066
C        0.93612181      -5.80653126       5.30450354
C       -0.28581488      -5.39019140       4.78851302
Br      -1.87800044      -6.24075545       5.35545927
C       -0.35852787      -4.35204971       3.85585656
C        0.82989781      -3.71754090       3.43561827
C        1.10558097      -2.65852924       2.51677288
C        0.28896605      -1.85196299       1.69450759
H        2.71455590       0.04385693       0.22311831
H        4.16450241      -1.36064936       1.63376919
H        5.03633626      -3.05232938       2.91072484
H        4.70514161      -4.49018051       3.81659690
H        6.70761266      -2.47522970       4.81605207
H        4.80346823      -0.81489102       6.09311922
H        3.48576748      -0.99228027       4.91422879
H        8.20064879       0.54416945       1.20680491
H        8.18268396      -1.17600032       1.62078238
H        9.04296003      -0.02221440       2.66205349
H        6.32206051       2.16820234       2.46843501
H        3.79080282       2.55229352       3.62142863
H        4.32026716       2.21913107       5.28017560
H        3.10501740       1.18615788       4.49871965
H        3.07557804      -5.52297752       5.31129201
H        0.97964297      -6.61834409       6.02608573
H       -1.31594674      -4.03461180       3.45257380
H       -0.78800719      -1.98962126       1.69769721
