169
Properties=species:S:1:pos:R:3 pbc="F F F"
C        0.00000000       0.00000000       0.00000000
N        2.08926461       6.14289739      -7.16131624
C        2.53128240       5.65316176      -6.21812840
C        3.07122299       5.05493212      -5.06599062
C        2.55602498       3.91046145      -4.53950392
N        1.41938453       3.33230780      -5.09042071
N        3.19152078       3.32695098      -3.40421041
C        2.43033117       2.45011699      -2.55043807
C        2.43025874       2.67734849      -1.16536293
C        1.65450646       1.88051467      -0.32251118
C        0.87741093       0.87741093      -0.87741093
C        0.91178547       0.70719436      -2.25021433
N        1.66619944       1.46133330      -3.09059060
C        4.53688226       3.65603719      -3.10166746
C        5.07709277       4.79509715      -3.58421901
C        6.50058250       5.14938769      -3.32975656
O        6.97817713       6.18130653      -3.79616379
C        7.31660544       4.23916502      -2.44478866
C        6.87739975       2.79821481      -2.62766147
C        5.38509442       2.64899201      -2.34151335
C        4.25737189       5.75861326      -4.41472853
H        4.90558099       6.07845232      -5.24617430
C        3.84974671       7.01688865      -3.64723958
C        4.17338757       8.33249233      -3.93259050
C        3.61166483       9.25022236      -2.99432583
C        2.88772978       8.59566701      -2.03159036
S        2.86753839       6.91716951      -2.23418975
H        1.33946211       3.39543712      -6.10121288
H        1.30669931       2.37195911      -4.74745430
H        2.99902325       3.49960681      -0.74111547
H        1.65237399       2.06744896       0.74735659
H        0.31226891      -0.05576748      -2.73949462
H        8.37240095       4.33587968      -2.71953905
H        7.19622481       4.56428701      -1.40576261
H        7.45171530       2.14275915      -1.96341520
H        7.08617883       2.47596584      -3.65650363
H        5.21815726       2.76596249      -1.26507911
H        5.09578376       1.62683776      -2.61413348
H        4.79052176       8.62558812      -4.77450098
H        3.74210902      10.32445670      -3.03420056
C        2.21152635       9.26395331      -0.95004408
C        1.64520598       9.82364308      -0.04424907
Br       0.72951384      10.72861410       1.42034484
N       -3.77445863      -3.39732003      -8.22169958
C       -3.69865071      -3.61073137      -7.09319048
C       -3.60604861      -3.87142097      -5.71467614
C       -3.29084659      -2.89822956      -4.81691421
N       -2.97448044      -1.61700755      -5.25062505
N       -3.27353759      -3.22102024      -3.42812433
C       -2.49526937      -2.40539414      -2.53022272
C       -1.59675218      -3.02705689      -1.64916109
C       -0.78801529      -2.25787850      -0.81163851
C       -0.87741093      -0.87741093      -0.87741093
C       -1.77506790      -0.32201393      -1.77211233
N       -2.58070122      -1.04798828      -2.58943385
C       -3.97258897      -4.36205517      -2.95994279
C       -4.28178828      -5.36058605      -3.81403461
C       -5.05848099      -6.55078899      -3.37045677
O       -5.34733110      -7.43877003      -4.16954632
C       -5.42983764      -6.65901369      -1.91170779
C       -5.68969824      -5.28047411      -1.33310368
C       -4.47360562      -4.37738598      -1.52460818
C       -3.85782104      -5.30715271      -5.26573994
H       -4.72288294      -5.65424290      -5.85308177
C       -2.68892152      -6.24002210      -5.58493132
C       -2.66393741      -7.30405074      -6.47048224
C       -1.39226683      -7.95150318      -6.51244301
C       -0.50350650      -7.35691625      -5.65456440
S       -1.16056592      -6.04682961      -4.81150212
H       -3.49630646      -1.28375340      -6.05605226
H       -3.00327734      -0.95803112      -4.46480425
H       -1.49161863      -4.10800689      -1.64012002
H       -0.08870422      -2.74520690      -0.13855526
H       -1.87684061       0.75508337      -1.87423881
H       -6.33612927      -7.26769122      -1.82399919
H       -4.61671784      -7.16726800      -1.38228859
H       -5.93130558      -5.35935437      -0.26722969
H       -6.56067560      -4.83025106      -1.82772164
H       -3.67245304      -4.71751527      -0.85923054
H       -4.75925484      -3.36579385      -1.21170630
H       -3.52120861      -7.60959880      -7.05980346
H       -1.15881531      -8.80416388      -7.13778709
C        0.85544097      -7.80032553      -5.48063918
C        1.99355948      -8.17168080      -5.33497681
Br       3.83380085      -8.77213086      -5.09945308
N       -6.15773446       7.14942181       2.08632197
C       -5.66394524       6.20896986       2.52965746
C       -5.06076399       5.06017407       3.07120766
C       -3.91626562       4.53552717       2.55419756
N       -3.34305529       5.08479674       1.41426102
N       -3.32757344       3.40381265       3.19129607
C       -2.45046899       2.55037920       2.43003804
C       -2.67363756       1.16465139       2.43468121
C       -1.87660718       0.32186185       1.65906328
C       -0.87741093       0.87741093       0.87741093
C       -0.71112054       2.25080099       0.90727264
N       -1.46551153       3.09117733       1.66143449
C       -3.65183654       3.10425495       4.53849543
C       -4.79072230       3.58505624       5.08063040
C       -5.14010206       3.33373401       6.50589068
O       -6.17198334       3.79852075       6.98514336
C       -4.22490669       2.45382744       7.32182498
C       -2.78578907       2.63962355       6.87786341
C       -2.64009135       2.34953854       5.38596989
C       -5.75906178       4.41033824       4.26131366
H       -6.07944092       5.24274244       4.90802424
C       -7.01626772       3.63798205       3.85962516
C       -8.33175063       3.92043326       4.18628650
C       -9.24836392       2.97784658       3.63000251
C       -8.59310779       2.01491033       2.90696904
S       -6.91527774       2.22235593       2.88126398
H       -3.40938148       6.09516134       1.33156930
H       -2.38203866       4.74431048       1.29976359
H       -3.49298208       0.73967135       3.00709210
H       -2.06040913      -0.74854951       1.66060674
H        0.04864743       2.74054978       0.30409370
H       -4.31933946       2.73138844       8.37709178
H       -4.54733130       1.41350682       7.20543632
H       -2.12671236       1.97898318       7.45219411
H       -2.46594917       3.67001116       7.08268796
H       -2.75439265       1.27228208       5.22252413
H       -1.61959102       2.62429635       5.09286763
H       -8.62550827       4.76328916       4.80181344
H      -10.32232461       3.01496289       3.76347879
C       -9.26019405       0.92943685       2.23589284
C       -9.81887879       0.02035282       1.67386652
Br     -10.72222476      -1.44955917       0.76511750
N        7.41839063      -2.17769097       5.79739664
C        6.41709414      -2.58424369       5.40123473
C        5.19397457      -3.08086241       4.91730875
C        4.62410788      -2.60550008       3.77638239
N        5.20601869      -1.54928365       3.08681071
N        3.41260571      -3.19745898       3.31261748
C        2.55126621      -2.43734356       2.44227647
C        1.18807615      -2.32701167       2.75788234
C        0.34406966      -1.54798904       1.96547361
C        0.87741093      -0.87741093       0.87741093
C        2.23010521      -1.01736461       0.62172435
N        3.07007786      -1.77772918       1.37031631
C        3.04729613      -4.49467995       3.75261084
C        3.57143646      -4.99225981       4.89271267
C        3.25068918      -6.36895106       5.36008652
O        3.75540425      -6.80999613       6.39024707
C        2.25419217      -7.17899284       4.56737411
C        2.36514407      -6.84737618       3.09075578
C        2.16629446      -5.35163035       2.85767497
C        4.51763558      -4.17133839       5.74173971
H        5.32559834      -4.85338774       6.05122153
C        3.86673230      -3.63135521       7.01578743
C        4.22071683      -3.88832971       8.32942385
C        3.38624439      -3.20513169       9.26483694
C        2.42936582      -2.46023742       8.62538391
S        2.51651703      -2.56245351       6.93992711
H        6.22180341      -1.53540616       3.07890256
H        4.80557950      -1.47541538       2.14511784
H        0.78576736      -2.81088038       3.64309780
H       -0.70797166      -1.45996187       2.22047616
H        2.70323313      -0.50354268      -0.21077976
H        2.46624452      -8.24278439       4.71879078
H        1.25002389      -6.96645625       4.94979430
H        1.62156470      -7.41558235       2.52074260
H        3.35366687      -7.14702737       2.71795405
H        1.11352425      -5.10359835       3.03207625
H        2.38582154      -5.14840198       1.80253148
H        5.03925739      -4.54189152       8.60946196
H        3.49166193      -3.26841053      10.34069382
C        1.44242589      -1.66928181       9.31381604
C        0.61586371      -1.00685648       9.89037795
Br      -0.72061744       0.06422926      10.82262979
