182
Properties=species:S:1:pos:R:3 pbc="F F F"
N        2.99916863       7.05280142      -8.07122027
C        3.44118642       6.56306578      -7.12803243
C        3.98112701       5.96483614      -5.97589465
C        3.46592900       4.82036548      -5.44940795
N        2.32928856       4.24221183      -6.00032473
N        4.10142480       4.23685500      -4.31411444
C        3.34023519       3.36002102      -3.46034210
C        3.34016277       3.58725251      -2.07526695
C        2.56441048       2.79041870      -1.23241520
C        1.78731495       1.78731495      -1.78731495
C        1.82168950       1.61709839      -3.16011836
N        2.57610346       2.37123733      -4.00049463
C        5.44678629       4.56594122      -4.01157149
C        5.98699680       5.70500117      -4.49412304
C        7.41048653       6.05929172      -4.23966059
O        7.88808115       7.09121055      -4.70606782
C        8.22650946       5.14906904      -3.35469268
C        7.78730378       3.70811883      -3.53756549
C        6.29499845       3.55889603      -3.25141738
C        5.16727591       6.66851729      -5.32463255
H        5.81548501       6.98835634      -6.15607832
C        4.75965073       7.92679267      -4.55714360
C        5.08329159       9.24239635      -4.84249453
C        4.52156885      10.16012638      -3.90422985
C        3.79763381       9.50557104      -2.94149438
Br       2.91786665      10.37503770      -1.53436029
S        3.77744242       7.82707353      -3.14409378
H        2.24936614       4.30534115      -7.01111691
H        2.21660333       3.28186314      -5.65735833
H        3.90892728       4.40951083      -1.65101950
H        2.56227802       2.97735299      -0.16254743
H        1.22217293       0.85413654      -3.64939865
H        9.28230497       5.24578370      -3.62944308
H        8.10612884       5.47419104      -2.31566664
H        8.36161932       3.05266317      -2.87331922
H        7.99608285       3.38586986      -4.56640765
H        6.12806128       3.67586651      -2.17498313
H        6.00568778       2.53674178      -3.52403750
H        5.70042579       9.53549214      -5.68440501
H        4.65201304      11.23436072      -3.94410459
N       -7.47610012      -2.94559650      -7.70149370
C       -6.67365466      -3.42719044      -7.03143954
C       -5.69343875      -4.01547471      -6.21294434
C       -5.24536113      -3.41214211      -5.07819919
N       -5.69648033      -2.14523823      -4.73010656
N       -4.29345316      -4.09426181      -4.26467926
C       -3.45572027      -3.32812362      -3.37675442
C       -2.06733659      -3.53252135      -3.40282429
C       -1.22831316      -2.76210853      -2.59682270
C       -1.78731495      -1.78731495      -1.78731495
C       -3.16144284      -1.62623927      -1.81122413
N       -4.00030531      -2.36993074      -2.57759938
C       -4.14688755      -5.49982118      -4.37759027
C       -4.55605259      -6.13240624      -5.49766218
C       -4.46468593      -7.61229776      -5.63245514
O       -4.86240339      -8.17015609      -6.65280004
C       -3.82488620      -8.39409632      -4.51128867
C       -4.12105328      -7.73504333      -3.17689149
C       -3.64626719      -6.28394087      -3.17510380
C       -5.13522514      -5.36132738      -6.66387324
H       -6.00418096      -5.94004097      -7.01569775
C       -4.16717894      -5.23546256      -7.84094551
C       -4.32993857      -5.70500586      -9.13323804
C       -3.21458865      -5.40058708      -9.97074936
C       -2.24753094      -4.71620193      -9.28096636
Br      -0.63249932      -4.15086964     -10.04389567
S       -2.65221212      -4.43236615      -7.66403145
H       -6.66985281      -1.95011661      -4.94585477
H       -5.46300809      -1.94056046      -3.75225624
H       -1.62946688      -4.26076603      -4.07922470
H       -0.15417570      -2.91957567      -2.62842708
H       -3.65142932      -0.86815119      -1.20612760
H       -4.23289567      -9.41049476      -4.51414132
H       -2.74703593      -8.45127404      -4.69767654
H       -3.63194622      -8.28830601      -2.36734948
H       -5.20112397      -7.76634665      -2.98088974
H       -2.55092695      -6.27043217      -3.15755181
H       -3.99984579      -5.82051924      -2.24610204
H       -5.20807273      -6.24809836      -9.46415184
H       -3.13880041      -5.67657663     -11.01510131
N       -7.36334495       7.80640490       2.95344046
C       -6.78811362       6.92494307       3.41922794
C       -6.08544791       5.84820583       3.98820406
C       -4.94270786       5.35979797       3.43319659
N       -4.47096275       5.87036934       2.23049302
N       -4.25001214       4.30509825       4.09728384
C       -3.36767228       3.45867723       3.33424880
C       -3.50489555       2.06527107       3.43251561
C       -2.70382640       1.22395554       2.65946244
C       -1.78731495       1.78731495       1.78731495
C       -1.70402104       3.16725840       1.72762680
N       -2.46369247       4.00731565       2.47682730
C       -4.47702881       4.07041574       5.47685445
C       -5.61004036       4.51699651       6.05908414
C       -5.86053451       4.33371066       7.51519366
O       -6.88956910       4.76665687       8.02913355
C       -4.84759844       3.55972280       8.32294995
C       -3.45058843       3.80071455       7.78168513
C       -3.37373406       3.42867779       6.30290000
C       -6.67278107       5.23327948       5.25436521
H       -7.00569297       6.08385728       5.87036943
C       -7.90139575       4.36650457       4.97568669
C       -9.21066244       4.59204836       5.36547167
C      -10.09838658       3.56583220       4.92170631
C       -9.42819426       2.59983566       4.21666931
Br     -10.25689652       1.08903276       3.48133536
S       -7.77050756       2.90179719       4.07630497
H       -4.60371768       6.86825640       2.09385012
H       -3.49910590       5.57953691       2.07718199
H       -4.26226680       1.62957909       4.07761172
H       -2.82131696       0.14682912       2.73403236
H       -1.01175813       3.66216648       1.05178351
H       -4.89779999       3.89549198       9.36423979
H       -5.11186892       2.49735637       8.28676122
H       -2.72023677       3.21563463       8.35173032
H       -3.18318143       4.85845137       7.90672757
H       -3.43107265       2.33863464       6.20920364
H       -2.39059976       3.74339868       5.93246863
H       -9.51948712       5.45266686       5.94816896
H      -11.16310799       3.54901560       5.11835476
N        8.92394435      -3.61682825       5.58241771
C        7.80136231      -3.84994502       5.48097730
C        6.43008809      -4.13470552       5.35706420
C        5.71246327      -3.76040826       4.26283089
N        6.30599578      -3.01053850       3.25529084
N        4.33932992      -4.13525152       4.17781280
C        3.45728443      -3.37234160       3.33097227
C        2.24643142      -2.89756106       3.85868975
C        1.40222834      -2.10617230       3.07884374
C        1.78731495      -1.78731495       1.78731495
C        2.99635250      -2.27697784       1.32557590
N        3.83013587      -3.05768224       2.06001731
C        3.85149622      -5.21094977       4.96185300
C        4.52112432      -5.59620200       6.06879469
C        4.06749906      -6.75300073       6.88893904
O        4.70387928      -7.10002905       7.88145119
C        2.78464608      -7.44601933       6.49960578
C        2.61478060      -7.42639555       4.99181195
C        2.64708174      -5.99401082       4.46421930
C        5.77075068      -4.87092539       6.51874969
H        6.48813531      -5.65036330       6.82142107
C        5.53878127      -3.97137412       7.73343162
C        6.12968215      -4.05579239       8.98270793
C        5.67131412      -3.03982310       9.87478787
C        4.74782833      -2.22711479       9.26975611
Br       3.91432217      -0.78520054      10.12774193
S        4.42760430      -2.65528609       7.66571933
H        7.27784560      -3.23058245       3.05739614
H        5.72184150      -3.02203411       2.41194918
H        1.97471555      -3.10520742       4.88953464
H        0.47089326      -1.73490190       3.49638328
H        3.35332253      -2.04714800       0.32523759
H        2.82591815      -8.48351338       6.84810022
H        1.95110309      -6.94316628       7.00171714
H        1.66911033      -7.90491197       4.71357941
H        3.41951022      -8.00718745       4.52166270
H        1.72613476      -5.48445969       4.76831648
H        2.65356034      -6.04424930       3.36865742
H        6.85570775      -4.81583563       9.24877956
H        6.00599975      -2.92614410      10.89833450
C       -0.00445707       0.01189536      -1.78238275
H       -0.66409135       0.67374010      -2.43557963
H        0.65740317      -0.63156657      -2.45157240
C       -0.90989263      -0.90692880      -0.91072765
C        0.90977584       0.90977584      -0.90977584
C       -0.00465871       1.77757030       0.00794375
H       -0.66225468       2.44313916      -0.64384735
H        0.64322798       2.43503045       0.67728295
C       -1.78241447       0.00034974      -0.00472694
H       -2.45427497      -0.65498947       0.64260836
H       -2.43311707       0.67328779      -0.65473579
C       -0.91132561       0.90220522       0.91563759
C       -0.01476271      -0.02253852       1.78660255
H       -0.67934791      -0.69751639       2.42135241
H        0.63392994       0.61504881       2.47327442
C        0.01484550      -1.77751727      -0.01636693
H        0.67870853      -2.42144646      -0.68295456
H       -0.62264859      -2.45592969       0.64226336
C        1.78714474       0.01002794       0.00389507
H        2.44202412       0.67113390       0.66197326
H        2.45385902      -0.65136977      -0.64189061
C        0.91606151      -0.90478549       0.90901405
