190
Properties=species:S:1:pos:R:3 pbc="F F F"
N        2.99916863       7.05280142      -8.07122027
C        3.44118642       6.56306578      -7.12803243
C        3.98112701       5.96483614      -5.97589465
C        3.46592900       4.82036548      -5.44940795
N        2.32928856       4.24221183      -6.00032473
N        4.10142480       4.23685500      -4.31411444
C        3.34023519       3.36002102      -3.46034210
C        3.34016277       3.58725251      -2.07526695
C        2.56441048       2.79041870      -1.23241520
C        1.78731495       1.78731495      -1.78731495
C        1.82168950       1.61709839      -3.16011836
N        2.57610346       2.37123733      -4.00049463
C        5.44678629       4.56594122      -4.01157149
C        5.98699680       5.70500117      -4.49412304
C        7.41048653       6.05929172      -4.23966059
O        7.88808115       7.09121055      -4.70606782
C        8.22650946       5.14906904      -3.35469268
C        7.78730378       3.70811883      -3.53756549
C        6.29499845       3.55889603      -3.25141738
C        5.16727591       6.66851729      -5.32463255
H        5.81548501       6.98835634      -6.15607832
C        4.75965073       7.92679267      -4.55714360
C        5.08329159       9.24239635      -4.84249453
C        4.52156885      10.16012638      -3.90422985
C        3.79763381       9.50557104      -2.94149438
S        3.77744242       7.82707353      -3.14409378
H        2.24936614       4.30534115      -7.01111691
H        2.21660333       3.28186314      -5.65735833
H        3.90892728       4.40951083      -1.65101950
H        2.56227802       2.97735299      -0.16254743
H        1.22217293       0.85413654      -3.64939865
H        9.28230497       5.24578370      -3.62944308
H        8.10612884       5.47419104      -2.31566664
H        8.36161932       3.05266317      -2.87331922
H        7.99608285       3.38586986      -4.56640765
H        6.12806128       3.67586651      -2.17498313
H        6.00568778       2.53674178      -3.52403750
H        5.70042579       9.53549214      -5.68440501
H        4.65201304      11.23436072      -3.94410459
C        3.12143038      10.17385733      -1.85994811
C        2.55511000      10.73354710      -0.95415310
Br       1.63941786      11.63851813       0.51044082
N       -8.23929430      -3.05118809      -6.83270792
C       -7.25787678      -3.47164905      -6.40275880
C       -6.05904007      -3.98525720      -5.87756053
C       -5.50503560      -3.49594703      -4.73471980
N       -6.07729126      -2.40974403      -4.08478983
N       -4.31965025      -4.10505480      -4.22768919
C       -3.46098721      -3.34466186      -3.35494924
C       -2.08840520      -3.27444874      -3.63982830
C       -1.24475421      -2.49664384      -2.84584633
C       -1.78731495      -1.78731495      -1.78731495
C       -3.14870479      -1.88883979      -1.56136166
N       -3.98891102      -2.64702720      -2.31189719
C       -3.97566160      -5.42090663      -4.62773076
C       -4.48452626      -5.93348746      -5.76810729
C       -4.18635725      -7.32837137      -6.19471020
O       -4.67704363      -7.78223672      -7.22607917
C       -3.22897117      -8.14232652      -5.35897349
C       -3.36686174      -7.77234203      -3.89378433
C       -3.13727319      -6.27651322      -3.69152545
C       -5.39004133      -5.11122363      -6.65916079
H       -6.20678001      -5.78121833      -6.97192134
C       -4.69611775      -4.61800811      -7.92946116
C       -5.02494978      -4.89838589      -9.24484680
C       -4.15212172      -4.25815963     -10.17564374
C       -3.19286141      -3.52086539      -9.53097243
S       -3.32247974      -3.57994731      -7.84618268
H       -7.09233889      -2.37155661      -4.10192869
H       -5.69765229      -2.32251888      -3.13565362
H       -1.67707651      -3.78912904      -4.50325207
H       -0.18512306      -2.43985816      -3.07719722
H       -3.62883101      -1.34382399      -0.75305313
H       -3.46318547      -9.20415044      -5.49019585
H       -2.21112997      -7.96306630      -5.72179024
H       -2.65107425      -8.34401244      -3.29251503
H       -4.37095746      -8.03927209      -3.53813082
H       -2.07493518      -6.05787158      -3.84610417
H       -3.37678940      -6.04251803      -2.64715964
H       -5.85226639      -5.53894195      -9.52911460
H       -4.23346550      -4.34507247     -11.25194038
C       -2.17089837      -2.77055628     -10.21378117
C       -1.31500431      -2.14217240     -10.78563349
Br       0.06890398      -1.12612882     -11.71027032
N       -8.74664404       5.99556517       3.38098110
C       -7.76458749       5.56667047       3.80102668
C       -6.56497018       5.04276021       4.31412741
C       -5.52188655       4.70691521       3.50690067
N       -5.64127733       4.80422630       2.12632150
N       -4.31374217       4.23743770       4.10121436
C       -3.41305117       3.43404518       3.31350195
C       -2.95155103       2.21561099       3.83552021
C       -2.12679128       1.39045790       3.06999520
C       -1.78731495       1.78731495       1.78731495
C       -2.28011503       2.99456162       1.32422959
N       -3.07465592       3.82044637       2.05273313
C       -4.04151233       4.51907502       5.46371165
C       -5.05197546       4.83179857       6.30234698
C       -4.79981661       5.18248329       7.72713892
O       -5.73250365       5.48453751       8.46831836
C       -3.38372427       5.10362609       8.24292082
C       -2.40464635       5.48146947       7.14687228
C       -2.59395301       4.58802054       5.92333830
C       -6.48786927       4.84771075       5.82484573
H       -6.94940114       5.74657352       6.26394502
C       -7.29476937       3.64160564       6.30721199
C       -8.42422085       3.63594446       7.10801716
C       -8.91435623       2.31780958       7.35375927
C       -8.13593255       1.37475225       6.73401443
S       -6.84317334       2.03692940       5.86850698
H       -6.19219373       5.58719604       1.78643442
H       -4.71653470       4.75452797       1.68476212
H       -3.26465901       1.88369187       4.82110674
H       -1.78041900       0.44490961       3.47684983
H       -2.05600332       3.34826742       0.32143737
H       -3.27637648       5.79843645       9.08271882
H       -3.20205450       4.08673413       8.60719788
H       -1.37623803       5.39603419       7.51532949
H       -2.55740925       6.53054143       6.86040969
H       -2.23582317       3.58063401       6.16245374
H       -1.95984516       4.98516143       5.12146048
H       -8.87777600       4.53693022       7.50561673
H       -9.78606272       2.08998332       7.95443231
C       -8.38598506      -0.04130400       6.81055476
C       -8.59540404      -1.22725112       6.87465728
Br      -8.93401682      -3.14482730       6.97830564
N        6.31747747      -8.57527737       3.23043548
C        6.02512005      -7.52053661       3.58662797
C        5.66799499      -6.23213294       4.02172988
C        4.53734138      -5.61215742       3.58620363
N        3.73005146      -6.21310315       2.62867051
N        4.20669874      -4.33010574       4.11558976
C        3.34410495      -3.46092992       3.35556343
C        3.74592688      -2.13690325       3.11985210
C        2.95818174      -1.29222977       2.33683288
C        1.78731495      -1.78731495       1.78731495
C        1.44808302      -3.10336686       2.04745636
N        2.19111409      -3.94201405       2.81470728
C        4.76878492      -3.90858186       5.34693221
C        5.90353888      -4.48144563       5.80113650
C        6.49575330      -4.10071096       7.11297457
O        7.51823264      -4.64988716       7.51723972
C        5.83933602      -2.99207673       7.89885844
C        4.33763526      -3.01355462       7.68179822
C        4.00610409      -2.90373019       6.19547757
C        6.61869275      -5.54510539       4.99662762
H        6.92129135      -6.32405230       5.71457603
C        7.89077667      -5.03276729       4.32004305
C        9.19185035      -5.46659202       4.50974010
C       10.12920655      -4.75604014       3.70067840
C        9.50416103      -3.80832617       2.93221203
S        7.82942675      -3.75959751       3.15958547
H        3.64936311      -7.22377898       2.69268211
H        2.81612011      -5.74842601       2.59127868
H        4.69158445      -1.76990654       3.50796662
H        3.27944078      -0.27148575       2.15125190
H        0.54757041      -3.54692531       1.63121241
H        6.05585922      -3.13934015       8.96233239
H        6.27447244      -2.03743472       7.58407935
H        3.86645207      -2.19049520       8.23065445
H        3.91979622      -3.94721236       8.08135179
H        4.23507969      -1.88743581       5.85639543
H        2.92569456      -3.05618097       6.08459153
H        9.46225035      -6.25583295       5.20223964
H       11.19661565      -4.93824154       3.69562117
C       10.19844730      -2.93495975       2.02182877
C       10.77991204      -2.20351537       1.25938279
Br      11.72009136      -1.02083168       0.02657212
C       -0.00445707       0.01189536      -1.78238275
H       -0.66409135       0.67374010      -2.43557963
H        0.65740317      -0.63156657      -2.45157240
C       -0.90989263      -0.90692880      -0.91072765
C        0.90977584       0.90977584      -0.90977584
C       -0.00465871       1.77757030       0.00794375
H       -0.66225468       2.44313916      -0.64384735
H        0.64322798       2.43503045       0.67728295
C       -1.78241447       0.00034974      -0.00472694
H       -2.45427497      -0.65498947       0.64260836
H       -2.43311707       0.67328779      -0.65473579
C       -0.91132561       0.90220522       0.91563759
C       -0.01476271      -0.02253852       1.78660255
H       -0.67934791      -0.69751639       2.42135241
H        0.63392994       0.61504881       2.47327442
C        0.01484550      -1.77751727      -0.01636693
H        0.67870853      -2.42144646      -0.68295456
H       -0.62264859      -2.45592969       0.64226336
C        1.78714474       0.01002794       0.00389507
H        2.44202412       0.67113390       0.66197326
H        2.45385902      -0.65136977      -0.64189061
C        0.91606151      -0.90478549       0.90901405
