173
Properties=species:S:1:pos:R:3 pbc="F F F"
C        0.00000000       0.00000000       0.00000000
C        0.88144018       0.88144018      -0.88144018
C        0.46721021       2.16987617      -1.20548278
C        1.27986081       2.97521773      -2.00796021
C        2.51048157       2.49994553      -2.49032530
C        2.91423479       1.20050795      -2.15613061
C        2.09851554       0.39308655      -1.35360014
C        3.33322814       3.42054695      -3.33897392
O        2.93614606       4.57416477      -3.52192143
C        4.62030572       2.93396957      -3.96420091
S        6.00474131       3.19897239      -2.81798687
C        7.32242932       2.59648129      -3.80236427
N        7.09269007       2.03628335      -4.96458971
C        8.28353646       1.61590641      -5.52317039
C        8.41907323       0.96867180      -6.76059161
C        9.68354515       0.55377959      -7.19320976
C       10.82384496       0.77232430      -6.42066201
N       12.11105864       0.31968548      -6.79661537
C       12.42351505      -0.46237987      -7.89506737
O       11.63085449      -0.90422964      -8.72163377
C       13.84415981      -0.87954568      -8.04023542
C       14.04612421      -2.21764339      -8.42961124
C       15.32982595      -2.71663472      -8.64743214
C       16.42970669      -1.88216830      -8.48334401
C       16.24436532      -0.55145431      -8.10153958
C       14.95560387      -0.04300973      -7.88123248
Br      14.83474222       1.79946991      -7.43932258
C       10.70906714       1.45863119      -5.19960735
C        9.42890532       1.86022576      -4.76463812
S        8.96138415       2.67022220      -3.31350389
H       -0.47938490       2.56024314      -0.84018279
H        0.94611311       3.98276352      -2.25348596
H        3.85952831       0.78564415      -2.49298928
H        2.42449675      -0.61291434      -1.09929332
H        4.78230458       3.51182968      -4.88169803
H        4.53171693       1.88610916      -4.26499532
H        7.54198223       0.77927447      -7.37158540
H        9.72908221       0.05406531      -8.15560952
H       12.87358414       0.56704241      -6.17699471
H       13.19016020      -2.87586331      -8.57772829
H       15.46517471      -3.75017950      -8.95798948
H       17.43177996      -2.26298021      -8.66674457
H       17.11864890       0.08848167      -7.99806773
H       11.57664532       1.65976175      -4.57881818
C       -0.88144018      -0.88144018      -0.88144018
C       -0.38335702      -2.08301786      -1.37619428
C       -1.19563500      -2.88939485      -2.17800889
C       -2.50937004      -2.50195762      -2.48942474
C       -2.99706006      -1.28935288      -1.98446040
C       -2.18193531      -0.48060089      -1.18266604
C       -3.32556873      -3.41913068      -3.34804959
O       -2.84245809      -4.50237887      -3.68739530
C       -4.71120844      -3.01289157      -3.79437619
S       -5.93684959      -3.52848298      -2.55636800
C       -7.40132458      -2.97671460      -3.34323569
N       -7.34843929      -2.28813915      -4.45698469
C       -8.62557615      -1.94367830      -4.85335881
C       -8.95041489      -1.20002855      -5.99789319
C      -10.28674752      -0.88061457      -6.26317241
C      -11.31417149      -1.28932788      -5.41333190
N      -12.67066257      -0.94028373      -5.61641319
C      -13.16887227      -0.09480225      -6.59252803
O      -12.51238784       0.50373315      -7.43960392
C      -14.62996611       0.18333484      -6.55821828
C      -14.99722318       1.52376941      -6.78463830
C      -16.33808254       1.90411075      -6.82665158
C      -17.33086681       0.94741974      -6.64743534
C      -16.98155705      -0.38672734      -6.42616620
C      -15.63453424      -0.77613341      -6.38315896
Br     -15.29435983      -2.62936149      -6.14981338
C      -11.00789983      -2.07228240      -4.28712346
C       -9.65704617      -2.37711297      -4.01961006
S       -8.96579046      -3.26739124      -2.71192853
H        0.62891462      -2.40503170      -1.14492394
H       -0.79558956      -3.82873548      -2.55803755
H       -4.00738571      -0.94564146      -2.18513458
H       -2.57322727       0.45719192      -0.79484038
H       -4.91288798      -3.51512493      -4.74781939
H       -4.75409457      -1.93778293      -3.99094391
H       -8.16391398      -0.86298468      -6.66594344
H      -10.47976473      -0.29961435      -7.15937796
H      -13.33735770      -1.32354105      -4.95672251
H      -14.22757431       2.27895212      -6.94340299
H      -16.60233494       2.94254768      -7.01319744
H      -18.37813245       1.23696355      -6.69437541
H      -17.77574173      -1.12150152      -6.30795506
H      -11.78284849      -2.42087388      -3.61150289
C       -0.88144018       0.88144018       0.88144018
C       -2.19178329       0.49876186       1.15202400
C       -2.99324495       1.30582446       1.96396933
C       -2.49138429       2.49815127       2.51121685
C       -1.17033132       2.87077302       2.22976901
C       -0.36820082       2.06267396       1.41432746
C       -3.40431109       3.30984450       3.37859342
O       -4.52796254       2.86960347       3.63466626
C       -2.95285932       4.64751161       3.91810526
S       -2.09793451       4.41897562       5.50479045
C       -1.74061021       6.08976419       5.89090048
N       -2.00600745       7.04908532       5.03847036
C       -1.60076806       8.26173351       5.56011169
C       -1.72252183       9.50480292       4.92101188
C       -1.22997770      10.65743695       5.54311985
C       -0.61874770      10.60265684       6.79542673
N       -0.05893398      11.73551226       7.43291326
C        0.05583544      13.00903914       6.90299885
O       -0.29984661      13.36502081       5.78339119
C        0.75534725      14.02303613       7.73716068
C        1.65101113      14.86221420       7.04688899
C        2.33126475      15.88485361       7.70703451
C        2.12121881      16.08541508       9.06668614
C        1.23251369      15.26347208       9.76349220
C        0.54463048      14.23314646       9.10531064
Br      -0.68942203      13.23599991      10.14811276
C       -0.52963549       9.37108455       7.46658564
C       -1.01556209       8.21238164       6.82582547
S       -1.01091008       6.57156607       7.36263408
H       -2.60021210      -0.42181976       0.74264868
H       -4.01680038       0.99513458       2.17042764
H       -0.72787377       3.77632474       2.63396324
H        0.65642064       2.36183696       1.20545941
H       -3.84697217       5.26499231       4.06386782
H       -2.32795584       5.16808495       3.18678063
H       -2.18514875       9.56678740       3.94090595
H       -1.34663021      11.59069397       5.00143285
H        0.32668579      11.58639544       8.35791160
H        1.81029800      14.72483666       5.97748653
H        3.01118764      16.52950496       7.15466737
H        2.63822971      16.89132828       9.58244574
H        1.06917312      15.45134092      10.82303051
H       -0.07388295       9.29258931       8.44875299
C        0.88144018      -0.88144018       0.88144018
C        2.09106158      -0.38923104       1.36227654
C        2.89204730      -1.19757198       2.17341946
C        2.48998605      -2.50062766       2.51013868
C        1.26975747      -2.98275028       2.01836560
C        0.46837988      -2.17301077       1.20381158
C        3.39498085      -3.30793305       3.38983511
O        4.41492378      -2.77859300       3.83871548
C        3.06235264      -4.74732795       3.70879561
S        2.00841026      -4.82679892       5.18649140
C        1.82942266      -6.56350137       5.32835084
N        2.31346554      -7.36693418       4.41316341
C        2.01214405      -8.67557405       4.73489516
C        2.36711527      -9.80269345       3.97852792
C        1.96046818     -11.07532309       4.39474323
C        1.20753034     -11.25443789       5.55486304
N        0.73029541     -12.51731618       5.97974790
C        0.84374938     -13.71579956       5.29665362
O        1.36894038     -13.87992932       4.19938892
C        0.19088636     -14.90324547       5.91071772
C       -0.50277173     -15.74281854       5.01804525
C       -1.11555513     -16.91393439       5.46224411
C       -1.03880046     -17.26413498       6.80554788
C       -0.35050493     -16.44318467       7.70177085
C        0.26856721     -15.26387816       7.26138125
Br       1.23444293     -14.27570442       8.56338735
C        0.88251796     -10.13906060       6.34572713
C        1.28400131      -8.85878875       5.91097914
S        1.00438297      -7.31320251       6.62752474
H        2.42060832       0.61753962       1.11797232
H        3.83595870      -0.80086440       2.54553948
H        0.90533880      -3.97795422       2.25486873
H       -0.47780353      -2.55817541       0.83050386
H        4.00645687      -5.27168881       3.89768663
H        2.59863234      -5.23668750       2.84750158
H        2.94337256      -9.68314127       3.06632827
H        2.25893733     -11.91058298       3.76923673
H        0.22487683     -12.53504545       6.85769897
H       -0.55466239     -15.48675681       3.95993076
H       -1.63788240     -17.55508184       4.75578525
H       -1.50241445     -18.18428387       7.15367490
H       -0.28692303     -16.74722343       8.74489790
H        0.31064690     -10.24183084       7.26274751
