181
Properties=species:S:1:pos:R:3 pbc="F F F"
C        0.00000000       0.00000000       0.00000000
C        0.88137718       0.88137718      -0.88137718
C        2.24906165       0.96273697      -0.63330933
C        3.05008975       1.78219166      -1.43411667
C        2.48843006       2.52272182      -2.48584102
C        1.11138246       2.42459035      -2.72921102
C        0.31002162       1.60521157      -1.92619843
C        3.38360152       3.41708282      -3.28761338
O        4.54248967       3.57436006      -2.90588933
C        2.78578361       4.11457172      -4.50068306
S        4.00516689       5.05583274      -5.45626461
C        5.04165962       3.75510670      -6.00049021
S        6.69468731       4.00646066      -6.35312086
C        6.86219525       2.33354070      -6.71714175
C        8.01340701       1.62572574      -7.10257163
C        7.91265425       0.24826235      -7.35170610
C        6.67946921      -0.38647431      -7.22386255
C        5.53573753       0.32943514      -6.83541378
C        5.62322319       1.70963576      -6.57305841
N        4.58506975       2.53595463      -6.17481794
N        9.10568419      -0.40822910      -7.72193400
C        9.28003052      -1.74782082      -8.02219233
O        8.42437527      -2.62275191      -7.98605285
C       10.67787965      -2.13413383      -8.38854757
C       11.55896707      -1.24787486      -9.02681923
C       12.86416163      -1.65000272      -9.32740925
C       13.28376813      -2.94046293      -9.00716617
C       12.40905048      -3.83808237      -8.39799487
C       11.10611171      -3.43576011      -8.09216860
H        2.70204399       0.40087262       0.17971524
H        4.11805036       1.84327321      -1.22831349
H        0.62719265       2.97942038      -3.52728658
H       -0.75827391       1.54380021      -2.12057116
H        2.03654057       4.83037156      -4.14846870
H        2.30322886       3.38482964      -5.15761060
H        8.95736468       2.15276014      -7.19948303
H        6.56474967      -1.45060625      -7.40898745
H        4.58222138      -0.17906545      -6.72977857
H        9.93429322       0.17027715      -7.70632580
H       11.24483816      -0.25141307      -9.32423965
H       13.54128524      -0.95484641      -9.81820706
H       12.72745094      -4.84945077      -8.15798523
H       10.42465919      -4.14002525      -7.61740504
C       14.62926949      -3.35007405      -9.31610763
C       15.75612688      -3.69312335      -9.57484611
Br      17.57815997      -4.24780507      -9.99320434
C       -0.88137718      -0.88137718      -0.88137718
C       -0.29676105      -1.73694754      -1.81139935
C       -1.10824334      -2.53184512      -2.62630962
C       -2.50625271      -2.47576585      -2.51497434
C       -3.08073251      -1.61593473      -1.56851659
C       -2.26774960      -0.81949211      -0.75418991
C       -3.33095691      -3.31737345      -3.43996736
O       -2.75794666      -3.91469395      -4.35009846
C       -4.83686497      -3.34120395      -3.22296947
S       -5.69824793      -4.49916357      -4.31985274
C       -5.01881015      -6.01340705      -3.76503933
S       -4.88940968      -7.37364678      -4.79121237
C       -4.14352100      -8.25401204      -3.51534466
C       -3.64940238      -9.56954944      -3.52275255
C       -3.07508534     -10.08639046      -2.35114691
C       -3.01522348      -9.29526570      -1.20636827
C       -3.50930756      -7.98095743      -1.21032147
C       -4.07961578      -7.44566181      -2.38063978
N       -4.59559565      -6.16886763      -2.53137904
N       -2.58552791     -11.40778731      -2.42607387
C       -1.98172713     -12.14793327      -1.42474163
O       -1.72916847     -11.77086246      -0.28764528
C       -1.57824774     -13.53258200      -1.82146366
C       -2.28033155     -14.27204464      -2.78553525
C       -1.84863484     -15.55450169      -3.13843164
C       -0.72819538     -16.10484870      -2.51742728
C       -0.03929899     -15.39063239      -1.53903160
C       -0.46644840     -14.10678489      -1.18928691
H        0.78397357      -1.79093528      -1.91623966
H       -0.64126533      -3.19374485      -3.35462688
H       -4.15637646      -1.53223413      -1.44528903
H       -2.72607983      -0.15086119      -0.02915642
H       -5.22952009      -2.34347299      -3.44238775
H       -5.06586309      -3.59588967      -2.18391633
H       -3.71823920     -10.16116786      -4.43020079
H       -2.57806284      -9.66266699      -0.28240103
H       -3.44772801      -7.37110923      -0.31409726
H       -2.63727859     -11.83133820      -3.34227938
H       -3.17986435     -13.88338044      -3.25441996
H       -2.39650475     -16.11836679      -3.88977436
H        0.82718856     -15.82044157      -1.04273239
H        0.07324354     -13.55188388      -0.42339863
C       -0.28531332     -17.42476577      -2.88522398
C        0.08560041     -18.53019631      -3.19325372
Br       0.68533653     -20.31758401      -3.69131175
C       -0.88137718       0.88137718       0.88137718
C       -1.01551702       2.23688252       0.59270840
C       -1.81236194       3.04312789       1.41090826
C       -2.47860798       2.49860944       2.51977547
C       -2.34106715       1.13065565       2.79346104
C       -1.54205001       0.32459631       1.97478530
C       -3.28660174       3.41371036       3.38798563
O       -3.22077572       4.62408015       3.17788320
C       -4.10289257       2.78847860       4.50966722
S       -5.13557484       3.98676620       5.39492321
C       -6.21607350       4.47378532       4.10739770
S       -6.95539028       6.01421435       4.08466419
C       -7.70387947       5.62297602       2.58602221
C       -8.54008870       6.41790031       1.78371537
C       -9.04210421       5.88345305       0.58706545
C       -8.71354937       4.57961578       0.22369231
C       -7.87486833       3.79460978       1.03110834
C       -7.35617498       4.32027001       2.22947237
N       -6.51412844       3.66709610       3.11461777
N       -9.86475144       6.73516800      -0.18053036
C      -10.48358756       6.45760217      -1.38678769
O      -10.39855416       5.41967603      -2.03055398
C      -11.30176701       7.57751162      -1.94698524
C      -11.95464201       8.51245298      -1.12918356
C      -12.68873239       9.55546231      -1.70262653
C      -12.78544218       9.65497583      -3.08994665
C      -12.16402244       8.71652441      -3.91158387
C      -11.42562570       7.67680943      -3.33991493
H       -0.50346952       2.67836950      -0.25863765
H       -1.90631847       4.10350250       1.17981609
H       -2.83189619       0.66123423       3.64076919
H       -1.43738023      -0.73371723       2.20243446
H       -3.40879849       2.36457215       5.24201019
H       -4.73939866       1.99065864       4.11561179
H       -8.78181417       7.42769373       2.10009995
H       -9.08415942       4.13382591      -0.69485446
H       -7.61830230       2.78295910       0.73167311
H       -9.95777197       7.67580408       0.17732012
H      -11.92962801       8.43403219      -0.04599545
H      -13.18770087      10.27785677      -1.06091174
H      -12.24714601       8.78236808      -4.99352869
H      -10.94240478       6.94435039      -3.98471619
C      -13.54026649      10.73178078      -3.67674420
C      -14.17243186      11.63360492      -4.16818715
Br     -15.19458978      13.09177828      -4.96280883
C        0.88137718      -0.88137718       0.88137718
C        1.80707347      -0.29655108       1.74148340
C        2.62203337      -1.10797329       2.53639142
C        2.51506554      -2.50613504       2.47579232
C        1.57291615      -3.08086132       1.61140637
C        0.75853995      -2.26793211       0.81495956
C        3.44000705      -3.33058971       3.31770096
O        4.34662056      -2.75665336       3.91946515
C        3.22746235      -4.83720554       3.33637049
S        4.32345548      -5.69877405       4.49503471
C        3.76207254      -5.02555125       6.00963274
S        4.78377484      -4.89716445       7.37332953
C        3.50304251      -4.15774667       8.25208852
C        3.50502734      -3.66756119       9.56911585
C        2.33015988      -3.09830957      10.08415326
C        1.18758058      -3.03950006       9.28977681
C        1.19695295      -3.52962069       7.97401282
C        2.37057630      -4.09481194       7.44052911
N        2.52668684      -4.60650131       6.16265416
N        2.39965933      -2.61250066      11.40722909
C        1.39430657      -2.01392637      12.14616909
O        0.25759099      -1.76364229      11.76644293
C        1.78566731      -1.61342115      13.53320494
C        2.74962462      -2.31483276      14.27345405
C        3.09738137      -1.88593480      15.55825200
C        2.47136978      -0.76901767      16.11008391
C        1.49305252      -0.08091207      15.39499839
C        1.14843795      -0.50524916      14.10883308
H        1.90850548       0.78432561       1.79902150
H        3.34695974      -0.64080656       3.20187076
H        1.45317072      -4.15661319       1.52411570
H        0.03689150      -2.72642109       0.14278486
H        3.45104535      -5.22620372       2.33813177
H        2.18834370      -5.07007766       3.58724773
H        4.41090270      -3.73545703      10.16324811
H        0.26120866      -2.60621333       9.65570888
H        0.30237789      -3.46889369       7.36166292
H        3.31474381      -2.66277956      11.83337280
H        3.22237038      -3.21178627      13.88350809
H        3.84867436      -2.43324350      16.12272803
H        0.99286855       0.78279083      15.82590768
H        0.38259725       0.03381117      13.55325289
C        2.83388095      -0.32900234      17.43241978
C        3.13748405       0.03951050      18.53987608
Br       3.62838459       0.63536459      20.33053924
