181
Properties=species:S:1:pos:R:3 pbc="F F F"
C        0.00000000       0.00000000       0.00000000
O        5.51639347      13.79436550      -2.05680539
C        4.29684313      13.64084017      -1.99308832
C        3.68431534      12.37539072      -2.57502892
S        2.04560760      11.96813366      -1.90444858
C        1.91200024      10.31558711      -2.42113454
S        0.29769920       9.57497062      -2.40042149
C        1.06318855       8.16803943      -2.99158727
N        0.71021518       6.97614333      -3.38292132
N        1.89051053       6.34755689      -3.78076362
C        2.88853387       7.19656332      -3.59861134
S        4.56564151       6.93382358      -3.90424077
C        4.58474970       5.15162282      -4.25262371
C        4.13808730       4.33187772      -3.04495443
O        4.62370148       4.51331725      -1.93135456
N        3.17890595       3.38277215      -3.37051164
C        2.46638023       2.54114297      -2.49165441
C        2.63199094       2.53394213      -1.10541126
C        1.83822203       1.70856951      -0.29998279
C        0.88135187       0.88135187      -0.88135187
C        0.71837267       0.86163495      -2.26267011
C        1.51012717       1.68966201      -3.06378899
N        2.39453279       8.37874766      -3.12339510
N        2.92106279       9.59679221      -2.81754594
N        3.40533146      14.57332724      -1.49566821
C        3.72519359      15.75860753      -0.80058578
C        2.69125977      16.67455418      -0.56758187
C        2.93891380      17.86766995       0.11937514
C        4.21915785      18.13998143       0.59514106
Br       4.55743899      19.74844339       1.52702294
C        5.25080957      17.22966917       0.38766772
C        5.00199304      16.04580174      -0.31016979
H        4.38468542      11.56710194      -2.34382287
H        3.61427158      12.49173835      -3.66133682
H        5.60705571       4.84864390      -4.50073742
H        3.96141766       4.95360744      -5.13018826
H        2.88352347       3.34124988      -4.33781858
H        3.35810367       3.17295746      -0.61300992
H        1.97166499       1.73192561       0.77835245
H       -0.02505434       0.21804779      -2.72549591
H        1.35782046       1.66590233      -4.13992212
H        2.42272578      14.38876062      -1.65735229
H        1.68503210      16.48407104      -0.93151570
H        2.12913614      18.57581273       0.27560899
H        6.25112736      17.42445171       0.76757476
H        5.82999046      15.35148591      -0.43455111
O       -2.69493023      -4.68071381     -13.99192032
C       -2.70499232      -3.47348002     -13.75229928
C       -3.23176817      -2.99588938     -12.40707742
S       -2.64834097      -1.34391774     -11.92593113
C       -3.04785509      -1.36481062     -10.23605618
S       -3.08422015       0.19099127      -9.37986242
C       -3.51359567      -0.71275415      -7.99646543
N       -3.83819502      -0.47395815      -6.75712666
N       -4.10466353      -1.72164245      -6.19252506
C       -3.91753949      -2.64165522      -7.12451382
S       -4.08507529      -4.35115843      -6.96747214
C       -4.29682162      -4.52039148      -5.17178313
C       -3.06520092      -4.04271884      -4.40699969
O       -1.93720615      -4.42974534      -4.70142181
N       -3.38477549      -3.17905678      -3.36835746
C       -2.49712126      -2.46306583      -2.53899053
C       -1.10607335      -2.52448629      -2.64078470
C       -0.29833904      -1.73204537      -1.81638991
C       -0.88135187      -0.88135187      -0.88135187
C       -2.26530140      -0.82405512      -0.75332122
C       -3.06908782      -1.61398453      -1.58050582
N       -3.56776341      -2.03231241      -8.29659973
N       -3.31807061      -2.44833604      -9.56899429
N       -2.34211479      -2.48443997     -14.64777215
C       -1.71717069      -2.66800979     -15.89920642
C       -1.62600384      -1.55825011     -16.74914187
C       -1.01475879      -1.67005330     -18.00239652
C       -0.47271194      -2.88898408     -18.40230221
Br       0.35737834      -3.04366592     -20.09257186
C       -0.53906305      -3.99416906     -17.55957892
C       -1.16190517      -3.88138021     -16.31467919
H       -2.89245568      -3.73156882     -11.67158573
H       -4.32597195      -2.99946869     -12.44190611
H       -4.44973743      -5.57702193      -4.92967767
H       -5.19836965      -3.97984588      -4.86699783
H       -4.36447378      -2.96056229      -3.23755586
H       -0.61353878      -3.16540430      -3.36512796
H        0.78188655      -1.78239935      -1.92472535
H       -2.72927907      -0.16401698      -0.02519330
H       -4.14840651      -1.54472891      -1.47050949
H       -2.55756763      -1.53195187     -14.37931919
H       -2.04384800      -0.59782358     -16.45894726
H       -0.96878305      -0.80349783     -18.65705900
H       -0.10606307      -4.94722092     -17.85472031
H       -1.17596196      -4.76271120     -15.67735432
O      -14.04036904       2.96728360       4.35991172
C      -13.76556072       3.00447802       3.16073288
C      -12.39267617       3.50520202       2.73685679
S      -11.88037815       2.95493779       1.08287391
C      -10.18121260       3.30440053       1.16310877
S       -9.27946079       3.35979756      -0.36616705
C       -7.91134628       3.72306501       0.58840394
N       -6.65691269       4.01811067       0.39425647
N       -6.12152291       4.23269413       1.66461400
C       -7.08478133       4.04682848       2.55209872
S       -6.97283878       4.16136266       4.26950442
C       -5.17756405       4.31594446       4.49548772
C       -4.43431765       3.07659592       4.00400589
O       -4.77161922       1.94715422       4.34959986
N       -3.36238974       3.39011024       3.17968976
C       -2.53796596       2.49930076       2.46191091
C       -2.68076297       1.11062079       2.47996058
C       -1.85682653       0.30197001       1.68797779
C       -0.88135187       0.88135187       0.88135187
C       -0.71266039       2.26205996       0.86795739
C       -1.53942286       3.06691818       1.65723713
N       -8.24806927       3.74863357       1.89997271
N       -9.53856802       3.52438682       2.27244610
N      -14.64179357       2.69587742       2.13665592
C      -15.91519258       2.10264588       2.26654844
C      -16.73473902       2.06761925       1.13103755
C      -18.00748328       1.49015602       1.18956932
C      -18.45781452       0.92574395       2.38043975
Br     -20.17464414       0.14111008       2.46310523
C      -17.64604241       0.93631419       3.51045442
C      -16.38128991       1.52563572       3.45103894
H      -11.68876528       3.12399939       3.48284556
H      -12.39666617       4.59941775       2.77126283
H       -4.96205860       4.43184283       5.56253561
H       -4.83184201       5.22316159       3.99020976
H       -3.19766397       4.37137312       2.99355484
H       -3.43706065       0.62144362       3.08556678
H       -1.99705613      -0.77564033       1.70382235
H        0.04716794       2.72313387       0.24252342
H       -1.39700979       4.14410808       1.62252703
H      -14.33978087       2.93025821       1.19879960
H      -16.40505365       2.50381713       0.19174807
H      -18.63771161       1.48773467       0.30389360
H      -17.98088428       0.48532514       4.44179490
H      -15.76971631       1.49625099       4.35006018
O        4.29221153      -3.02683946      14.04851337
C        4.43375822      -1.88459767      13.61241573
C        4.79184005      -1.69743331      12.14546162
S        4.37731210      -0.05682060      11.48405714
C        4.48302062      -0.38387416       9.78182711
S        4.59719563       1.00647244       8.68236812
C        4.65754405      -0.14344258       7.42182861
N        4.80202350      -0.14059815       6.12665818
N        4.79075312      -1.48262964       5.74544828
C        4.63245399      -2.21674001       6.83451453
S        4.52681384      -3.93500757       6.94188444
C        4.41061547      -4.39060658       5.18777418
C        3.14949921      -3.82830542       4.53711483
O        2.04281519      -3.97643263       5.04912548
N        3.41128467      -3.18637620       3.33452887
C        2.50892789      -2.45793992       2.53230981
C        1.15979897      -2.27196692       2.83957845
C        0.34711898      -1.48152347       2.01813189
C        0.88135187      -0.88135187       0.88135187
C        2.21860320      -1.07389688       0.55017766
C        3.02825213      -1.86083633       1.37448972
N        4.57277271      -1.39737149       7.92653135
N        4.48169302      -1.58091236       9.27279555
N        4.36924138      -0.73187205      14.37321348
C        3.94155850      -0.62913958      15.71368882
C        4.15174992       0.58970134      16.37134723
C        3.74793781       0.76044067      17.69971147
C        3.11230426      -0.28192277      18.36977120
Br       2.56156455      -0.05449542      20.16279948
C        2.87974870      -1.49114600      17.72191633
C        3.29640697      -1.66166547      16.39989214
H        4.23381446      -2.46337207      11.59842370
H        5.86481073      -1.87802374      12.02451226
H        4.36935608      -5.48148283       5.10559813
H        5.31643780      -4.05647882       4.67229673
H        4.37653367      -3.15476669       3.03129157
H        0.70861448      -2.71244848       3.72300808
H       -0.69605938      -1.33553556       2.28576197
H        2.64401094      -0.61054537      -0.33606696
H        4.07295589      -1.98846588       1.10222313
H        4.67019468       0.12352793      13.92217194
H        4.64770051       1.41608411      15.86900244
H        3.93516761       1.70669697      18.20086924
H        2.37088086      -2.30710816      18.23001529
H        3.07881616      -2.61456432      15.92264700
