149
Properties=species:S:1:pos:R:3 pbc="F F F"
C        0.00000000       0.00000000       0.00000000
C        0.88215972       0.88215972      -0.88215972
C        0.66945245       0.91569076      -2.25797467
C        1.47706427       1.71954008      -3.06108417
C        2.49661008       2.48218568      -2.48755935
C        2.71943802       2.45330714      -1.10194326
C        3.80773616       3.29925635      -0.48668684
S        5.11569370       2.29379051       0.27477953
C        6.16455792       3.55214497       0.83379012
N        5.96583913       4.81650214       0.59939667
N        7.01226036       5.45794104       1.18680466
C        7.41220947       6.75837395       1.29801722
S        6.52978133       8.07196606       0.61299251
C        7.61000979       9.45787185       1.06868902
C        7.07059549      10.77206163       0.55951657
C        6.21767667      11.55011084       1.35711999
C        5.72266908      12.76882858       0.88849959
C        6.06790590      13.22056931      -0.38454763
C        6.90301750      12.44650107      -1.18720154
Br       7.36678495      13.05422931      -2.91681231
C        7.40209236      11.22824415      -0.72591405
N        8.54210450       6.80981019       1.98455342
N        8.89658566       5.50544149       2.33355502
C        7.96092302       4.74513888       1.83871224
S        7.59899553       3.07900915       1.77107053
C        1.89352069       1.64778364      -0.30128137
H       -0.11954723       0.32247449      -2.71253871
H        1.31273282       1.75263010      -4.13485088
H        3.11479745       3.10356260      -3.13369800
H        3.35804892       3.95937970       0.26275301
H        4.25922499       3.93420253      -1.25613144
H        8.61429419       9.29390440       0.65969804
H        7.71200048       9.50105482       2.15902630
H        5.93486699      11.21106508       2.35218372
H        5.06720083      13.36662558       1.51731176
H        5.68051640      14.17170162      -0.74060496
H        8.05070576      10.63153919      -1.36312156
H        2.04489754       1.61489413       0.77556342
C       -0.88215972      -0.88215972      -0.88215972
C       -2.21857705      -1.08009047      -0.54445035
C       -3.02090017      -1.88722127      -1.34956709
C       -2.48396799      -2.49717182      -2.48521529
C       -1.13754614      -2.30474221      -2.83240006
C       -0.57090537      -2.94782640      -4.07494758
S        0.72316370      -4.16482323      -3.69304514
C        1.10786998      -4.69583473      -5.29494802
N        0.47514953      -4.29803943      -6.36005469
N        1.06649684      -4.95591648      -7.39397711
C        0.87793285      -5.00543159      -8.74506746
S       -0.34054200      -4.09302480      -9.55518808
C       -0.08228390      -4.65505286     -11.26185586
C       -1.06100211      -4.00990610     -12.21223234
C       -0.73745635      -2.80979138     -12.86341979
C       -1.64059848      -2.21532204     -13.74707755
C       -2.87969928      -2.80871557     -13.98460799
C       -3.21307517      -3.99286659     -13.33077834
Br      -4.89597721      -4.79550263     -13.64634673
C       -2.31597978      -4.59316374     -12.44710704
N        1.75294187      -5.84333364      -9.27696951
N        2.53865338      -6.36128291      -8.24584260
C        2.09288163      -5.80574553      -7.15448575
S        2.43759302      -5.86029691      -5.48423026
C       -0.34108691      -1.48168172      -2.01981707
H       -2.64318318      -0.61188362       0.33960083
H       -4.06557281      -2.04171602      -1.09292498
H       -3.12907841      -3.12283941      -3.10014023
H       -0.16773718      -2.16301556      -4.72392287
H       -1.37178188      -3.45161242      -4.62616466
H       -0.19073311      -5.74519636     -11.31257108
H        0.94155391      -4.42074460     -11.57483832
H        0.22406805      -2.33079159     -12.68702481
H       -1.37717380      -1.28841770     -14.25092315
H       -3.57579039      -2.34094330     -14.67608928
H       -2.58905761      -5.51591148     -11.94039741
H        0.70350240      -1.31419543      -2.27353522
C       -0.88215972       0.88215972       0.88215972
C       -1.92026176       1.61296958       0.30988654
C       -2.72235005       2.41892740       1.11641107
C       -2.48107735       2.49556911       2.48970864
C       -1.43587297       1.76383951       3.07497593
C       -1.19680686       1.83306528       4.56380720
S        0.41108110       2.57521355       4.97057222
C        0.33212701       2.51635672       6.69868306
N       -0.71135331       2.11018510       7.36140618
N       -0.37334507       2.23668614       8.67336554
C       -1.00327261       2.00688056       9.86241303
S       -2.61587660       1.40529153       9.96758674
C       -2.83774330       1.39222661      11.76922271
C       -4.21567541       0.91268065      12.15478449
C       -4.45366731      -0.44747293      12.40447313
C       -5.72731063      -0.89089310      12.76658054
C       -6.77901908       0.01784776      12.87615601
C       -6.55299648       1.36769695      12.61602668
Br      -7.97975821       2.60072026      12.75734809
C       -5.28333684       1.81849314      12.25442058
N       -0.18845877       2.32317278      10.85572973
N        1.01147850       2.77573844      10.30421218
C        0.85069865       2.70517849       9.01286981
S        1.75931110       3.05472936       7.61151589
C       -0.64048008       0.94743708       2.25466854
H       -2.11239751       1.56159131      -0.75852285
H       -3.53645483       2.98814370       0.67561527
H       -3.12053567       3.13073897       3.10078340
H       -1.25754030       0.82041669       4.97671861
H       -1.98527094       2.42874179       5.03554624
H       -2.67868290       2.40111985      12.16869780
H       -2.08224095       0.74407295      12.22771511
H       -3.64499647      -1.17136572      12.32011760
H       -5.89922409      -1.94636136      12.96365192
H       -7.76672519      -0.33519075      13.16128854
H       -5.12018073       2.87430600      12.05087978
H        0.17129838       0.36726278       2.68826386
C        0.88215972      -0.88215972       0.88215972
C        0.40877109      -1.31677169       2.11757509
C        1.21632107      -2.11965790       2.92170955
C        2.49469320      -2.48063839       2.49102351
C        2.98084989      -2.04578379       1.24805474
C        4.35438151      -2.46037705       0.77892078
S        5.48131879      -1.04532802       0.60805786
C        6.91389261      -1.87172001       0.09730014
N        7.00881711      -3.16632714       0.00780034
N        8.28371444      -3.40384343      -0.40416112
C        9.02351901      -4.51969593      -0.67064874
S        8.39414185      -6.11837376      -0.52376073
C        9.86848966      -7.08566475      -0.95496179
C        9.59882444      -8.56877965      -0.88446354
C        9.16071258      -9.26885734      -2.01890240
C        8.91629061     -10.64222961      -1.95552215
C        9.09952110     -11.33034492      -0.75684317
C        9.52084162     -10.63898555       0.37689294
Br       9.76322661     -11.56928395       2.00531600
C        9.76772042      -9.26713169       0.32139843
N       10.24329117      -4.15766556      -1.03359545
N       10.30829759      -2.76350105      -1.00332652
C        9.12576586      -2.36701070      -0.62542691
S        8.33519703      -0.88702158      -0.31528447
C        2.15509354      -1.24570313       0.44178904
H       -0.58351282      -1.03736789       2.46161090
H        0.85025163      -2.46503957       3.88492260
H        3.10799500      -3.10913742       3.13492563
H        4.25598586      -2.97929291      -0.18060315
H        4.78874775      -3.16799968       1.49281153
H       10.68934251      -6.83236698      -0.27320893
H       10.19906939      -6.82065952      -1.96569990
H        9.00893929      -8.74690704      -2.96209799
H        8.58281032     -11.17597093      -2.84226660
H        8.90973714     -12.39986686      -0.71678102
H       10.09330193      -8.73801651       1.21404807
H        2.50962467      -0.90235695      -0.52775336
