178
Properties=species:S:1:pos:R:3 pbc="F F F"
C        1.79206374       1.79206374      -1.79206374
C        1.57935647       1.82559478      -3.16787869
C        2.38696830       2.62944410      -3.97098820
C        3.40651410       3.39208970      -3.39746337
C        3.62934204       3.36321116      -2.01184728
C        4.71764018       4.20916037      -1.39659087
S        6.02559772       3.20369453      -0.63512449
C        7.07446195       4.46204899      -0.07611390
N        6.87574315       5.72640616      -0.31050735
N        7.92216439       6.36784507       0.27690064
C        8.32211349       7.66827797       0.38811319
S        7.43968535       8.98187008      -0.29691151
C        8.51991381      10.36777588       0.15878500
C        7.98049952      11.68196565      -0.35038746
C        7.12758069      12.46001486       0.44721597
C        6.63257310      13.67873261      -0.02140443
C        6.97780993      14.13047334      -1.29445166
C        7.81292153      13.35640509      -2.09710556
C        8.31199638      12.13814817      -1.63581807
N        9.45200853       7.71971422       1.07464939
N        9.80648968       6.41534551       1.42365100
C        8.87082704       5.65504290       0.92880822
S        8.50889955       3.98891317       0.86116650
C        2.80342472       2.55768766      -1.21118540
H        0.79035679       1.23237851      -3.62244273
H        2.22263684       2.66253413      -5.04475491
H        4.02470147       4.01346662      -4.04360203
H        4.26795294       4.86928373      -0.64715101
H        5.16912901       4.84410656      -2.16603546
H        9.52419822      10.20380842      -0.25020599
H        8.62190451      10.41095884       1.24912227
H        6.84477101      12.12096910       1.44227969
H        5.97710485      14.27652960       0.60740773
H        6.59042043      15.08160564      -1.65050898
H        8.96060978      11.54144321      -2.27302558
H        2.95480157       2.52479816      -0.13434060
C        8.16607704      13.81918569      -3.41419147
C        8.46184478      14.20676444      -4.51725093
Br       8.94007620      14.83344649      -6.30080477
C       -1.79206374      -1.79206374      -1.79206374
C       -2.88928457      -2.44609048      -1.23745489
C       -3.69135542      -3.25225314      -2.04379204
C       -3.39128237      -3.40585626      -3.39892854
C       -2.28633438      -2.75186278      -3.96620332
C       -1.98280447      -2.90352257      -5.43706438
S       -0.39550631      -3.73738149      -5.73152894
C       -0.39215139      -3.75815798      -7.46231548
N       -1.38337293      -3.33687811      -8.19240563
N       -0.99199153      -3.54171894      -9.47939835
C       -1.55490575      -3.34071039     -10.70666214
S       -3.13017783      -2.67150882     -10.91678030
C       -3.26824797      -2.73495437     -12.72570236
C       -4.60237087      -2.21178232     -13.19869943
C       -4.76295134      -0.85572700     -13.52170126
C       -5.99583022      -0.37225843     -13.96462149
C       -7.08389615      -1.23599670     -14.08284206
C       -6.93524197      -2.58071894     -13.75047127
C       -5.70666975      -3.07138851     -13.30790437
N       -0.71152555      -3.74147570     -11.64407210
N        0.43867837      -4.22157605     -11.01528652
C        0.22238848      -4.08167731      -9.73777290
S        1.04786828      -4.40474266      -8.27977185
C       -1.49107420      -1.93430839      -3.14691518
H       -3.12755325      -2.33461567      -0.18300911
H       -4.55126798      -3.76164745      -1.61701044
H       -4.03183694      -4.03967029      -4.01026289
H       -1.97574415      -1.91018925      -5.89845428
H       -2.77652954      -3.48439034      -5.91835116
H       -3.13973772      -3.76813062     -13.07034428
H       -2.46219901      -2.14495930     -13.17658277
H       -3.92511962      -0.16648796     -13.43185283
H       -6.10754915       0.67928431     -14.21796189
H       -8.03935038      -0.85212886     -14.43105582
H       -5.60400226      -4.12256202     -13.04851430
H       -0.63328613      -1.41352720      -3.56712699
C       -8.05953367      -3.47289832     -13.86702221
C       -9.00112798      -4.22009854     -13.96463362
Br     -10.52360633      -5.42825811     -14.12246302
C       -1.79206374       1.79206374       1.79206374
C       -2.99849106       2.27896244       1.29537644
C       -3.80058583       3.08552771       2.10128705
C       -3.39207695       3.40650650       3.39748372
C       -2.17681186       2.92168183       3.90590679
C       -1.75380399       3.25307592       5.31651150
S       -0.24104730       4.25844600       5.36492344
C       -0.07724364       4.45902523       7.07635596
N       -0.94635573       4.02455174       7.94174920
N       -0.45916106       4.39776870       9.15617906
C       -0.88033625       4.27326057      10.44868145
S       -2.35086556       3.48444190      10.88315949
C       -2.32418120       3.72209244      12.68263104
C       -3.54639606       3.12781720      13.33863936
C       -3.53425526       1.80356800      13.80255633
C       -4.66317198       1.25499614      14.41454202
C       -5.81908256       2.02025427      14.56339810
C       -5.84273590       3.33118866      14.09250761
C       -4.71879782       3.88652257      13.48064224
N        0.00121294       4.84665100      11.25163529
N        1.03115356       5.36482226      10.46451549
C        0.71147361       5.07334468       9.23519066
S        1.35827329       5.31942439       7.67549513
C       -1.38149494       2.10185249       3.08895034
H       -3.32192299       2.03672257       0.28653248
H       -4.74501548       3.46478963       1.72012076
H       -4.03467748       4.03735327       4.00973938
H       -1.60032830       2.31809534       5.86596404
H       -2.55478923       3.80360327       5.82087853
H       -2.27181731       4.79294584      12.91344947
H       -1.42245185       3.26046443      13.10082479
H       -2.64156399       1.19052136      13.69137507
H       -4.64081186       0.22961827      14.77579659
H       -6.69254812       1.58653832      15.04344860
H       -4.75065034       4.91005621      13.11437203
H       -0.43860400       1.71043418       3.46490215
C       -7.03762500       4.12103025      14.24079895
C       -8.03834461       4.78252258      14.36499295
Br      -9.65642359       5.85209973      14.56580414
C        1.79206374      -1.79206374       1.79206374
C        1.32381138      -2.21582600       3.03319257
C        2.13136912      -3.01873401       3.83729747
C        3.40466280      -3.39056620       3.40083818
C        3.88563614      -2.96669044       2.15207391
C        5.25350138      -3.39298253       1.67690751
S        6.38825943      -1.98624828       1.48990904
C        7.81229360      -2.82496189       0.97536935
N        7.89845218      -4.12068770       0.89351679
N        9.16917171      -4.36892005       0.47501707
C        9.90018843      -5.49112510       0.21096475
S        9.26165578      -7.08480102       0.37201015
C       10.72707729      -8.06417055      -0.06234316
C       10.44848690      -9.54506230       0.01930343
C        9.99873835     -10.24950041      -1.10785916
C        9.74603930     -11.62085974      -1.03418890
C        9.93254151     -12.30252905       0.16766436
C       10.36543974     -11.60670644       1.29428601
C       10.62063614     -10.23683120       1.22849529
N       11.11989101      -5.13917375      -0.16199141
N       11.19390969      -3.74528785      -0.14101335
C       10.01634110      -3.33889159       0.24182903
S        9.23714439      -1.85196507       0.54753676
C        3.05984144      -2.16648541       1.34597093
H        0.33552637      -1.92793738       3.38171429
H        1.76926281      -3.35567545       4.80498761
H        4.01806329      -4.01887098       4.04483584
H        5.14571561      -3.91732264       0.72134944
H        5.68791854      -4.09882535       2.39252714
H       11.55384143      -7.81179628       0.61257491
H       11.05288405      -7.80767703      -1.07682001
H        9.84426757      -9.73257306      -2.05338022
H        9.40354803     -12.15806711      -1.91538841
H        9.73625250     -13.37054580       0.21573675
H       10.95523727      -9.70416211       2.11567920
H        3.41035671      -1.83154594       0.37203768
C       10.55342068     -12.30842191       2.53761161
C       10.71085472     -12.89610863       3.57889680
Br      10.96541224     -13.84634833       5.26256689
C       -0.00445707       0.01189536      -1.78238275
H       -0.66409135       0.67374010      -2.43557963
H        0.65740317      -0.63156657      -2.45157240
C       -0.90989263      -0.90692880      -0.91072765
C        0.90977584       0.90977584      -0.90977584
C       -0.00465871       1.77757030       0.00794375
H       -0.66225468       2.44313916      -0.64384735
H        0.64322798       2.43503045       0.67728295
C       -1.78241447       0.00034974      -0.00472694
H       -2.45427497      -0.65498947       0.64260836
H       -2.43311707       0.67328779      -0.65473579
C       -0.91132561       0.90220522       0.91563759
C       -0.01476271      -0.02253852       1.78660255
H       -0.67934791      -0.69751639       2.42135241
H        0.63392994       0.61504881       2.47327442
C        0.01484550      -1.77751727      -0.01636693
H        0.67870853      -2.42144646      -0.68295456
H       -0.62264859      -2.45592969       0.64226336
C        1.78714474       0.01002794       0.00389507
H        2.44202412       0.67113390       0.66197326
H        2.45385902      -0.65136977      -0.64189061
C        0.91606151      -0.90478549       0.90901405
