134
Properties=species:S:1:pos:R:3 pbc="F F F"
C        1.79192144       1.79192144      -1.79192144
C        3.17725493       1.73845575      -1.65375614
C        3.98172385       2.55275307      -2.44970824
C        3.40106519       3.41377353      -3.38515419
C        2.00969262       3.45347466      -3.54111637
C        1.20400085       2.64515285      -2.72473251
C        1.33312286       4.37094315      -4.50340749
O        0.21565585       4.78611360      -4.19066698
N        1.86016848       4.79288059      -5.75213270
N        3.03319339       4.26009762      -6.20414495
C        3.25144907       4.83518633      -7.39086058
C        4.46659008       4.49114260      -8.17049715
C        2.22199438       5.73209785      -7.71399291
C        1.32947271       5.69753952      -6.66973005
C        0.05261724       6.42607081      -6.45524038
H        3.63795781       1.07363377      -0.92768768
H        5.06337125       2.52205266      -2.34018602
H        4.05525961       4.05234281      -3.97396296
H        0.12063492       2.68525793      -2.81911903
H        4.20027272       4.18018006      -9.18579032
H        5.02249915       3.66976018      -7.70559054
H        5.13481115       5.35600395      -8.23493490
H        0.09291701       7.02137859      -5.53745612
H       -0.78796179       5.72727076      -6.39332371
H       -0.15990840       7.11552965      -7.27802430
C        2.15311167       6.51851783      -8.91831795
C        2.09542240       7.17714456      -9.92694016
Br       2.00214373       8.24208828     -11.55779698
C       -1.79192144      -1.79192144      -1.79192144
C       -1.26565131      -2.34778286      -2.95603267
C       -2.07424116      -3.14223880      -3.76770519
C       -3.40408021      -3.38405955      -3.41185314
C       -3.92916746      -2.84423194      -2.23088425
C       -3.11624704      -2.03047251      -1.42716666
C       -5.34730489      -3.04601877      -1.81414984
O       -5.87973432      -2.13426695      -1.17843516
N       -6.12809320      -4.20262017      -2.07446839
N       -5.54727921      -5.29138108      -2.65877567
C       -6.51856034      -6.20470333      -2.75423230
C       -6.23618257      -7.52802900      -3.36401826
C       -7.72395991      -5.71644959      -2.22767563
C       -7.47062967      -4.44012192      -1.78599068
C       -8.35703670      -3.44023828      -1.13665344
H       -0.23333675      -2.16376923      -3.24217329
H       -1.67171162      -3.57156179      -4.68233652
H       -4.01444885      -3.98877972      -4.07833683
H       -3.51993748      -1.58496842      -0.52010597
H       -6.53814318      -8.33700320      -2.69109673
H       -5.16885233      -7.65245556      -3.57654198
H       -6.78217775      -7.63684207      -4.30673019
H       -8.40470542      -2.51977866      -1.72726764
H       -8.00166688      -3.20216159      -0.12880421
H       -9.38078591      -3.81418032      -1.03867931
C       -8.96502699      -6.44518433      -2.17973613
C      -10.00442067      -7.05549967      -2.13958679
Br     -11.68503233      -8.04232796      -2.07466871
C       -1.79192144       1.79192144       1.79192144
C       -3.17305847       1.60878446       1.78762390
C       -3.97915842       2.42221566       2.58281107
C       -3.40358894       3.41220014       3.38420383
C       -2.01367933       3.58384025       3.40676407
C       -1.20864944       2.77454939       2.59068739
C       -1.34590921       4.64043323       4.22113107
O       -0.30218780       5.11799234       3.77225629
N       -1.80211619       5.13001149       5.47305408
N       -2.87827559       4.54395804       6.07520234
C       -3.04756129       5.20588361       7.22405108
C       -4.15523522       4.83384215       8.13915247
C       -2.08191208       6.21279166       7.37338140
C       -1.28166604       6.15740668       6.25766956
C       -0.10050592       6.96844256       5.86497995
H       -3.63005427       0.84298884       1.16623616
H       -5.05869105       2.29003032       2.57688855
H       -4.06187337       4.04483973       3.97485229
H       -0.12956412       2.91480939       2.58063836
H       -3.77626457       4.64187897       9.14809957
H       -4.67007735       3.92883892       7.79893361
H       -4.89278577       5.64125383       8.19171041
H       -0.27331185       7.47066929       4.90777059
H        0.79288089       6.34060785       5.78490572
H        0.11618215       7.74661954       6.60320816
C       -1.98440132       7.11032233       8.49522379
C       -1.90273606       7.86200427       9.43476679
Br      -1.77069025       9.07741039      10.95392836
C        1.79192144      -1.79192144       1.79192144
C        1.24149517      -2.42197816       2.90599350
C        2.04931383      -3.21660088       3.71827045
C        3.40284070      -3.38444956       3.41270264
C        3.95353830      -2.76968540       2.28105995
C        3.14018254      -1.95634306       1.47736063
C        5.39601329      -2.89101636       1.92044385
O        5.91369949      -1.92935199       1.34938495
N        6.21624595      -4.02338790       2.16554791
N        5.66048074      -5.16148459       2.67547064
C        6.66697202      -6.03538250       2.77514146
C        6.41854862      -7.39584653       3.31383469
C        7.87071726      -5.47225127       2.32511661
C        7.57934059      -4.18941912       1.92798256
C        8.44692268      -3.12389195       1.36311379
H        0.19053198      -2.29582668       3.15292061
H        1.62744902      -3.70375972       4.59440119
H        4.01053075      -3.99171398       4.07932066
H        3.56214854      -1.45332634       0.60953699
H        6.78550233      -8.15982092       2.62091986
H        5.34974163      -7.57572170       3.47238654
H        6.92767390      -7.52342273       4.27465337
H        8.42743730      -2.22983393       1.99448050
H        8.12502824      -2.85613109       0.35147335
H        9.48978438      -3.44846519       1.29539596
C        9.14432781      -6.14379693       2.30182271
C       10.21097664      -6.70621643       2.28231406
Br      11.93565758      -7.61560118       2.25077024
C       -0.00445707       0.01189536      -1.78238275
H       -0.66409135       0.67374010      -2.43557963
H        0.65740317      -0.63156657      -2.45157240
C       -0.90989263      -0.90692880      -0.91072765
C        0.90977584       0.90977584      -0.90977584
C       -0.00465871       1.77757030       0.00794375
H       -0.66225468       2.44313916      -0.64384735
H        0.64322798       2.43503045       0.67728295
C       -1.78241447       0.00034974      -0.00472694
H       -2.45427497      -0.65498947       0.64260836
H       -2.43311707       0.67328779      -0.65473579
C       -0.91132561       0.90220522       0.91563759
C       -0.01476271      -0.02253852       1.78660255
H       -0.67934791      -0.69751639       2.42135241
H        0.63392994       0.61504881       2.47327442
C        0.01484550      -1.77751727      -0.01636693
H        0.67870853      -2.42144646      -0.68295456
H       -0.62264859      -2.45592969       0.64226336
C        1.78714474       0.01002794       0.00389507
H        2.44202412       0.67113390       0.66197326
H        2.45385902      -0.65136977      -0.64189061
C        0.91606151      -0.90478549       0.90901405
