105
Properties=species:S:1:pos:R:3 pbc="F F F"
C        0.00000000       0.00000000       0.00000000
C        0.88201742       0.88201742      -0.88201742
C        2.26735091       0.82855173      -0.74385212
C        3.07181983       1.64284904      -1.53980421
C        2.49116116       2.50386951      -2.47525016
C        1.09978859       2.54357063      -2.63121235
C        0.29409683       1.73524883      -1.81482849
C        0.42321884       3.46103913      -3.59350346
O       -0.69424817       3.87620958      -3.28076295
N        0.95026445       3.88297657      -4.84222867
N        2.12328937       3.35019360      -5.29424092
C        2.34154505       3.92528230      -6.48095655
C        3.55668606       3.58123857      -7.26059313
C        1.31209035       4.82219383      -6.80408889
Br       1.22248721       5.84517484      -8.37068393
C        0.41956869       4.78763549      -5.75982602
C       -0.85728678       5.51616679      -5.54533635
H        2.72805379       0.16372975      -0.01778366
H        4.15346723       1.61214863      -1.43028199
H        3.14535559       3.14243879      -3.06405894
H       -0.78926910       1.77535390      -1.90921500
H        3.29036869       3.27027604      -8.27588630
H        4.11259513       2.75985616      -6.79568651
H        4.22490713       4.44609993      -7.32503088
H       -0.81698701       6.11147456      -4.62755210
H       -1.69786581       4.81736673      -5.48341969
H       -1.06981243       6.20562562      -6.36812027
C       -0.88201742      -0.88201742      -0.88201742
C       -2.04863214      -0.35716539      -1.43395722
C       -2.86027183      -1.16579514      -2.22840610
C       -2.50190259      -2.49424061      -2.47413763
C       -1.31847025      -3.01783348      -1.93826784
C       -0.51475068      -2.20493637      -1.12448710
C       -0.89892148      -4.43452823      -2.14431172
O       -0.25985986      -4.96759082      -1.23527369
N       -1.16011543      -5.21323748      -3.30211678
N       -1.74829302      -4.63126118      -4.38816969
C       -1.84361978      -5.60064301      -5.30352111
C       -2.45712922      -5.31661711      -6.62477143
C       -1.31313995      -6.80594454      -4.81928858
Br      -1.24924149      -8.41798451      -5.77111999
C       -0.86908072      -6.55454674      -3.54340274
C       -0.21537198      -7.44175756      -2.54708681
H       -2.33673534       0.67405295      -1.24688481
H       -3.77682755      -0.76439691      -2.65467339
H       -3.16837286      -3.10475262      -3.07872784
H        0.39427470      -2.60755056      -0.68202395
H       -1.78539016      -5.61513965      -7.43600123
H       -2.67241318      -4.24949784      -6.74622679
H       -3.39882391      -5.86454616      -6.73266786
H       -0.80373538      -7.49292962      -1.62537466
H        0.79220140      -7.08460103      -2.31052097
H       -0.11589510      -8.46440753      -2.92363084
C       -0.88201742       0.88201742       0.88201742
C       -0.40488801       2.11593368       1.31893307
C       -1.20478316       2.91525528       2.13443464
C       -2.48076995       2.48290540       2.50660548
C       -2.97112255       1.25259545       2.05085357
C       -2.15479917       0.44404393       1.24533104
C       -4.31316604       0.72776862       2.43682677
O       -4.43186353      -0.49565770       2.52651853
N       -5.46548588       1.51585257       2.69413124
N       -5.42229215       2.86385646       2.48157528
C       -6.64227490       3.31259699       2.79291201
C       -6.95004523       4.76069605       2.68777648
C       -7.47833994       2.26139578       3.19863735
Br      -9.26592437       2.44506156       3.72736005
C       -6.72739051       1.11283626       3.12680343
C       -7.07660795      -0.29958581       3.42719422
H        0.58677184       2.45982486       1.03651418
H       -0.83435227       3.87548316       2.48606243
H       -3.07009836       3.11950115       3.16225381
H       -2.51488186      -0.52496214       0.90538008
H       -7.84052496       4.92377361       2.07223246
H       -6.12303149       5.31459249       2.23051381
H       -7.13064813       5.18436346       3.68102635
H       -6.42252621      -0.70581729       4.20533073
H       -6.99403308      -0.91992624       2.52881376
H       -8.10498857      -0.39098096       3.78992586
C        0.88201742      -0.88201742       0.88201742
C        2.06781828      -1.40314432       0.36879216
C        2.86639089      -2.21857892       1.16950328
C        2.48165797      -2.50665045       2.48197241
C        1.30102833      -1.96627953       3.00726371
C        0.49193856      -1.16112332       2.19111227
C        0.82671697      -2.26027202       4.39077244
O       -0.39204676      -2.28223436       4.57253676
N        1.65872201      -2.50135565       5.51539203
N        3.01148177      -2.35949117       5.39675095
C        3.50578978      -2.63407953       6.60791459
C        4.97096565      -2.58755533       6.83999678
C        2.47987549      -2.94551371       7.51298386
Br       2.72797533      -3.39627649       9.31409415
C        1.29963082      -2.85194017       6.81545921
C       -0.10615417      -3.06345715       7.24691338
H        2.37435575      -1.18646650      -0.65125506
H        3.78866067      -2.63566943       0.77156775
H        3.11494983      -3.16452510       3.07237838
H       -0.44017225      -0.75573532       2.57973674
H        5.20822711      -1.93893217       7.68937175
H        5.50372132      -2.19915177       5.96526471
H        5.35496746      -3.59110538       7.04996510
H       -0.58185317      -3.85062700       6.65326582
H       -0.68595956      -2.13989680       7.14898337
H       -0.16281700      -3.37124188       8.29550858
