194
Properties=species:S:1:pos:R:3 pbc="F F F"
C        1.79139957       1.79139957      -1.79139957
C        2.84962554       2.49918987      -1.22498905
C        3.66063140       3.29356534      -2.03741369
C        3.39893577       3.39558239      -3.40434715
C        2.34669866       2.67382731      -3.97014715
C        1.53894549       1.87211004      -3.16009478
O        4.28196402       4.14220662      -4.13205836
C        3.70026602       5.04114280      -5.08234567
H        2.60394464       5.00310422      -5.10387061
C        4.12142037       6.45586109      -4.68896678
C        4.20098568       4.71998112      -6.49686221
O        4.41328650       5.57949307      -7.35260371
N        4.32806332       3.36725633      -6.76634045
N        4.96997808       3.02212714      -7.95931489
C        4.64555980       1.85573405      -8.61601532
O        3.90131015       1.00151478      -8.14010959
C        5.29252240       1.69087162      -9.96055934
C        5.02708923       0.56359576     -10.64411771
C        5.65437582       0.31136440     -11.93412284
C        5.43612720      -0.86199174     -12.65941882
C        6.09157095      -1.05267302     -13.88105839
C        6.95887647      -0.08359349     -14.38994029
C        7.17458207       1.08966582     -13.67214216
C        6.52052454       1.26713845     -12.45542999
O        6.77941106       2.45741861     -11.76113858
C        6.21035618       2.71016066     -10.52179074
O        6.47090905       3.74805319      -9.91971725
H        3.05670404       2.43322116      -0.16027465
H        4.49658845       3.83554832      -1.60181826
H        2.14775610       2.69716034      -5.03752779
H        0.72623802       1.30636710      -3.60861956
H        5.20911315       6.51851472      -4.56555402
H        3.67679351       6.73334394      -3.72752254
H        3.81851174       7.19704920      -5.43547301
H        4.39518640       2.69902981      -6.00076112
H        5.49436398       3.77695951      -8.42134231
H        4.35652560      -0.19607023     -10.24963197
H        4.76727161      -1.62972260     -12.27813650
H        7.47013614      -0.23423227     -15.33747125
H        7.84764129       1.85369703     -14.05153516
C        5.87620764      -2.26775014     -14.62322161
C        5.69584087      -3.28537723     -15.24478331
Br       5.40420306      -4.93079416     -16.24979601
C       -1.79139957      -1.79139957      -1.79139957
C       -1.34041372      -2.18309668      -3.05029406
C       -2.14468672      -2.99979561      -3.84712809
C       -3.40181378      -3.40252007      -3.39453145
C       -3.84384955      -3.01969627      -2.12712730
C       -3.03706548      -2.20902868      -1.32505615
O       -4.09164458      -4.25288071      -4.21170371
C       -5.47983705      -3.95260326      -4.39131418
H       -5.81038644      -3.06829394      -3.83223909
C       -5.70014310      -3.68673086      -5.87937428
C       -6.34504879      -5.13572574      -3.93705447
O       -7.39675707      -5.45857803      -4.49004817
N       -5.88637510      -5.77706221      -2.79822279
N       -6.51449802      -6.97879226      -2.45812984
C       -6.60065627      -7.37484240      -1.14181051
O       -6.02589625      -6.79133791      -0.22570036
C       -7.43820679      -8.59839363      -0.90735295
C       -7.54735533      -9.04415264       0.35670527
C       -8.30424023     -10.25188361       0.65626079
C       -8.41173782     -10.77038296       1.94856650
C       -9.13288525     -11.95031122       2.16324015
C       -9.75236174     -12.61652483       1.10366331
C       -9.65178191     -12.09951726      -0.18509087
C       -8.92800943     -10.92706291      -0.38802063
O       -8.84191603     -10.45177847      -1.70427376
C       -8.10956513      -9.31609743      -2.01664502
O       -8.02674102      -8.93201329      -3.17992518
H       -0.36666404      -1.86801894      -3.41551687
H       -1.79006656      -3.32002590      -4.82386257
H       -4.79708028      -3.35563153      -1.72973242
H       -3.38406009      -1.92132849      -0.33583609
H       -5.29969655      -4.50804809      -6.48543726
H       -5.17166833      -2.77851660      -6.18747506
H       -6.76080877      -3.56758594      -6.12263924
H       -4.91578409      -5.67026501      -2.50892822
H       -7.09689395      -7.40399261      -3.19177925
H       -7.06259222      -8.53171335       1.18421823
H       -7.93353713     -10.26806533       2.78591695
H      -10.30952636     -13.53491351       1.27106474
H      -10.12539403     -12.60552721      -1.02195225
C       -9.23361918     -12.49180336       3.49374342
C       -9.31798384     -12.94530302       4.60803991
Br      -9.45439438     -13.67857362       6.40976308
C       -1.79139957       1.79139957       1.79139957
C       -1.44721222       2.00137232       3.12521991
C       -2.24940083       2.81867825       3.92353135
C       -3.40092659       3.40324502       3.39469370
C       -3.73441918       3.20189787       2.05435606
C       -2.92855418       2.39080021       1.25179592
O       -4.08886979       4.23895633       4.22840288
C       -5.51157545       4.07959538       4.23258366
H       -5.86471066       3.29869365       3.54751517
C       -5.92289013       3.69166378       5.65169432
C       -6.19691991       5.39190267       3.82900642
O       -7.26610276       5.77326984       4.30601068
N       -5.55130145       6.08914948       2.82120917
N       -6.01318357       7.38179092       2.55644562
C       -5.91097952       7.91547241       1.29085725
O       -5.29884597       7.36642652       0.37766203
C       -6.58954132       9.24252295       1.11188910
C       -6.51091845       9.82266217      -0.09877792
C       -7.10403218      11.13158556      -0.33575469
C       -7.01328989      11.78629339      -1.56602899
C       -7.58338478      13.05518252      -1.71861099
C       -8.24747718      13.67656426      -0.65881817
C       -8.34451013      13.02446392       0.56741599
C       -7.76975175      11.76385133       0.70948989
O       -7.87998788      11.15185355       1.96612683
C       -7.30531218       9.91561743       2.22137797
O       -7.39245740       9.40954331       3.33667878
H       -0.55721666       1.54400382       3.54897937
H       -1.97605263       2.99719995       4.96070245
H       -4.59842511       3.68082473       1.60319439
H       -3.18969029       2.24483961       0.20669477
H       -5.51226156       4.39772950       6.38319084
H       -5.52638988       2.70357640       5.90769370
H       -7.01070764       3.66825682       5.77206949
H       -4.57011482       5.90391984       2.62094267
H       -6.62835249       7.79356040       3.27075292
H       -5.99053053       9.34503838      -0.92548156
H       -6.49726826      11.32040139      -2.40198414
H       -8.68708339      14.66376294      -0.77747121
H       -8.85556908      13.49354111       1.40376329
C       -7.47936101      13.73570760      -2.98338950
C       -7.39224109      14.30564736      -4.04264149
Br      -7.25137556      15.22719174      -5.75536239
C        1.79139957      -1.79139957       1.79139957
C        2.71625167      -2.65283924       1.20471355
C        3.52894094      -3.44724197       2.01542752
C        3.39979825      -3.39511370       3.40395335
C        2.48210762      -2.52051003       3.98805546
C        1.67356139      -1.71894794       3.17864099
O        4.27959615      -4.15740789       4.11922496
C        3.71725266      -4.90049308       5.20600874
H        2.63709783      -4.74894505       5.32487659
C        3.96336016      -6.38109961       4.92178847
C        4.38726531      -4.50262288       6.52794081
O        4.60535088      -5.29643518       7.44359722
N        4.66578410      -3.15082956       6.64504645
N        5.45525477      -2.76412615       7.73203920
C        5.30885876      -1.51498756       8.29346286
O        4.60216807      -0.63698981       7.80377664
C        6.10211897      -1.29332467       9.54850973
C        6.01326760      -0.08646506      10.13507004
C        6.78955685       0.21869602      11.32900223
C        6.75596289       1.47024292      11.94783431
C        7.54746961       1.70524211      13.07772882
C        8.36878170       0.70397194      13.60041350
C        8.40063101      -0.54652584      12.98923319
C        7.61222218      -0.76812788      11.86274291
O        7.68766494      -2.03771612      11.27258720
C        6.97417467      -2.34463889      10.12349402
O        7.07477747      -3.45493031       9.60897171
H        2.81880445      -2.70713764       0.12425775
H        4.26233292      -4.10966932       1.56195279
H        2.39182990      -2.42456597       5.06604836
H        0.96671503      -1.03416356       3.64034607
H        5.02229356      -6.56557399       4.70531435
H        3.39918314      -6.69951412       4.03896272
H        3.67094706      -7.01524467       5.76484222
H        4.71596254      -2.56665307       5.81236172
H        5.95195639      -3.52253110       8.21817831
H        5.37912159       0.69789387       9.72885962
H        6.12560220       2.26363709      11.55372040
H        8.98580107       0.88866434      14.47623838
H        9.03530474      -1.33685942      13.38070932
C        7.52231474       2.99937837      13.70874275
C        7.50124752       4.08321748      14.23721692
Br       7.46718362       5.83569366      15.09171495
C       -0.00445707       0.01189536      -1.78238275
H       -0.66409135       0.67374010      -2.43557963
H        0.65740317      -0.63156657      -2.45157240
C       -0.90989263      -0.90692880      -0.91072765
C        0.90977584       0.90977584      -0.90977584
C       -0.00465871       1.77757030       0.00794375
H       -0.66225468       2.44313916      -0.64384735
H        0.64322798       2.43503045       0.67728295
C       -1.78241447       0.00034974      -0.00472694
H       -2.45427497      -0.65498947       0.64260836
H       -2.43311707       0.67328779      -0.65473579
C       -0.91132561       0.90220522       0.91563759
C       -0.01476271      -0.02253852       1.78660255
H       -0.67934791      -0.69751639       2.42135241
H        0.63392994       0.61504881       2.47327442
C        0.01484550      -1.77751727      -0.01636693
H        0.67870853      -2.42144646      -0.68295456
H       -0.62264859      -2.45592969       0.64226336
C        1.78714474       0.01002794       0.00389507
H        2.44202412       0.67113390       0.66197326
H        2.45385902      -0.65136977      -0.64189061
C        0.91606151      -0.90478549       0.90901405
