57
Properties=species:S:1:pos:R:3 pbc="F F F"
C        0.00000000       0.00000000       0.00000000
C        0.88118093       0.88118093      -0.88118093
C        0.63651628       2.24817964      -0.95438343
C        1.44639153       3.05279635      -1.75852799
C        2.50285286       2.49718527      -2.49484597
Br       3.51367891       3.71829079      -3.53841812
C        2.73778907       1.11947227      -2.42210948
C        1.92585696       0.31181149      -1.60577039
S        4.05581193       0.32733191      -3.29880936
O        5.28344676       1.06536862      -3.09837528
O        3.97642503      -1.10060413      -3.06301395
Cl       3.51642570       0.55523051      -5.25729841
H       -0.17675182       2.69895467      -0.38999356
H        1.24341260       4.12209196      -1.80065581
H        2.10479571      -0.76001131      -1.53083245
C       -0.88118093      -0.88118093      -0.88118093
C       -0.46452394      -2.16723490      -1.20732051
C       -1.27420256      -2.97276606      -2.01074725
C       -2.50234540      -2.49842448      -2.49411422
Br      -3.48932193      -3.71017810      -3.57088779
C       -2.91105652      -1.20026624      -2.16804806
C       -2.09782102      -0.39311830      -1.35249952
S       -4.45021169      -0.51759049      -2.71415102
O       -5.51511364      -1.46471226      -2.46736476
O       -4.53242834       0.85779700      -2.26420351
Cl      -4.20780982      -0.38181224      -4.73933255
H        0.48370851      -2.55458349      -0.84132144
H       -0.93450979      -3.97896935      -2.25268124
H       -2.40907678       0.61488957      -1.08142964
C       -0.88118093       0.88118093       0.88118093
C       -2.22817749       0.57303420       1.03786765
C       -3.03148441       1.37875248       1.84747898
C       -2.49523734       2.49667059       2.50297618
Br      -3.71117634       3.49109932       3.56811216
C       -1.14058232       2.80478737       2.33400113
C       -0.33133063       1.98780608       1.52430213
S       -0.36726660       4.18255516       3.13213144
O       -0.72129250       4.19143076       4.53446741
O        1.01183390       4.25816068       2.69250807
Cl      -1.27310236       5.79478064       2.26107162
H       -2.66313924      -0.29042150       0.53947868
H       -4.08328404       1.12024546       1.96263089
H        0.72707554       2.20932603       1.39336636
C        0.88118093      -0.88118093       0.88118093
C        2.22295048      -0.56020630       1.05592258
C        3.02621554      -1.36599327       1.86550706
C        2.49516926      -2.49675510       2.50295975
Br       3.71031675      -3.48956003       3.57051104
C        1.14587484      -2.81764822       2.31584776
C        0.33654341      -2.00066295       1.50623247
S        0.37908742      -4.21235543       3.09051034
O        0.71799074      -4.23274214       4.49645779
O       -0.99426436      -4.29806808       2.63503114
Cl       1.31188393      -5.80505510       2.21201558
H        2.65380725       0.31330801       0.57169717
H        4.07381579      -1.09739297       1.99495161
H       -0.71789647      -2.23217936       1.36133396
