86
Properties=species:S:1:pos:R:3 pbc="F F F"
C        1.79108495       1.79108495      -1.79108495
C        1.54642030       3.15808367      -1.86428746
C        2.35629555       3.96270037      -2.66843202
C        3.41275689       3.40708929      -3.40475000
C        3.64769310       2.02937629      -3.33201350
C        2.83576098       1.22171551      -2.51567441
S        4.96571595       1.23723594      -4.20871338
O        6.19335079       1.97527265      -4.00827930
O        4.88632905      -0.19070010      -3.97291797
Cl       4.42632972       1.46513454      -6.16720243
H        0.73315221       3.60885870      -1.29989759
H        2.15331663       5.03199598      -2.71055984
H        3.01469974       0.14989271      -2.44073647
C        4.17971640       4.33359737      -4.19655546
C        4.82204499       5.10954789      -4.85969253
Br       5.86063599       6.36419424      -5.93192910
C       -1.79108495      -1.79108495      -1.79108495
C       -2.75901643      -1.20806919      -2.60170580
C       -3.56155618      -2.01618349      -3.40968827
C       -3.40353300      -3.40974167      -3.41132151
C       -2.43261062      -3.98957730      -2.58689497
C       -1.62011300      -3.17354424      -1.77949366
S       -2.14487512      -5.73526227      -2.53152788
O       -2.04555052      -6.25293622      -3.87841600
O       -1.12973512      -6.00586652      -1.53294527
Cl      -3.87213360      -6.46711566      -1.71941743
H       -2.89649101      -0.12916778      -2.61624970
H       -4.31162916      -1.54255009      -4.04169320
H       -0.85281755      -3.61067800      -1.14183336
C       -4.28576778      -4.13916384      -4.28493761
C       -5.02463940      -4.75005491      -5.01659109
Br      -6.21933232      -5.73781411      -6.19961290
C       -1.79108495       1.79108495       1.79108495
C       -2.06817917       1.40314749       3.09746476
C       -2.87172908       2.21288251       3.90281636
C       -3.40413662       3.41236875       3.40809081
C       -3.12722741       3.79201053       2.08984495
C       -2.31150765       2.97901902       1.28262423
S       -3.73734844       5.29436690       1.37994994
O       -3.49500492       6.39312638       2.28877144
O       -3.32929975       5.34904874      -0.00980157
Cl      -5.75760800       4.99059452       1.31046417
H       -1.66370998       0.47745373       3.50074478
H       -3.07490009       1.89604764       4.92492472
H       -2.07844389       3.26821640       0.25866864
C       -4.21622620       4.16428743       4.32935559
C       -4.89635122       4.79401934       5.10091485
Br      -5.99605586       5.81224256       6.34846091
C        1.79108495      -1.79108495       1.79108495
C        1.99429806      -3.12398332       1.45051005
C        2.80383803      -3.92718487       2.25640505
C        3.41283467      -3.40496877       3.40679273
C        3.19712671      -2.06475561       3.74720057
C        2.38764100      -1.25529727       2.93021264
S        3.93477055      -1.30908813       5.16780660
O        5.34579612      -1.62445672       5.20664990
O        3.45433846       0.05468241       5.26889087
Cl       3.04563860      -2.28388636       6.72914173
H        1.53240751      -3.54787391       0.56162708
H        2.95581847      -4.96766735       1.97238664
H        2.22072080      -0.20760040       3.17700772
C        4.22572103      -4.32594756       4.15820063
C        4.90651336      -5.09726730       4.78750475
Br       6.00729697      -6.34442608       5.80503628
C       -0.00445707       0.01189536      -1.78238275
H       -0.66409135       0.67374010      -2.43557963
H        0.65740317      -0.63156657      -2.45157240
C       -0.90989263      -0.90692880      -0.91072765
C        0.90977584       0.90977584      -0.90977584
C       -0.00465871       1.77757030       0.00794375
H       -0.66225468       2.44313916      -0.64384735
H        0.64322798       2.43503045       0.67728295
C       -1.78241447       0.00034974      -0.00472694
H       -2.45427497      -0.65498947       0.64260836
H       -2.43311707       0.67328779      -0.65473579
C       -0.91132561       0.90220522       0.91563759
C       -0.01476271      -0.02253852       1.78660255
H       -0.67934791      -0.69751639       2.42135241
H        0.63392994       0.61504881       2.47327442
C        0.01484550      -1.77751727      -0.01636693
H        0.67870853      -2.42144646      -0.68295456
H       -0.62264859      -2.45592969       0.64226336
C        1.78714474       0.01002794       0.00389507
H        2.44202412       0.67113390       0.66197326
H        2.45385902      -0.65136977      -0.64189061
C        0.91606151      -0.90478549       0.90901405
