65
Properties=species:S:1:pos:R:3 pbc="F F F"
C        0.00000000       0.00000000       0.00000000
C        0.88118093       0.88118093      -0.88118093
C        0.63651628       2.24817964      -0.95438343
C        1.44639153       3.05279635      -1.75852799
C        2.50285286       2.49718527      -2.49484597
C        2.73778907       1.11947227      -2.42210948
C        1.92585696       0.31181149      -1.60577039
S        4.05581193       0.32733191      -3.29880936
O        5.28344676       1.06536862      -3.09837528
O        3.97642503      -1.10060413      -3.06301395
Cl       3.51642570       0.55523051      -5.25729841
H       -0.17675182       2.69895467      -0.38999356
H        1.24341260       4.12209196      -1.80065581
H        2.10479571      -0.76001131      -1.53083245
C        3.26981237       3.42369335      -3.28665143
C        3.91214097       4.19964386      -3.94978851
Br       4.95073197       5.45429022      -5.02202507
C       -0.88118093      -0.88118093      -0.88118093
C       -0.46582393      -2.16823668      -1.20501874
C       -1.27550539      -2.97375939      -2.00845109
C       -2.50235122      -2.49841335      -2.49411954
C       -2.90974588      -1.19926418      -2.17036075
C       -2.09652175      -0.39211310      -1.35480399
S       -4.44723687      -0.51524903      -2.71946730
O       -5.51375162      -1.46059649      -2.47284255
O       -4.52820056       0.86085574      -2.27149003
Cl      -4.20191568      -0.38253831      -4.74450063
H        0.48138828      -2.55637052      -0.83721418
H       -0.93684763      -3.98074709      -2.24856567
H       -2.40677947       0.61668016      -1.08551754
C       -3.25135370      -3.41791758      -3.31088588
C       -3.87864327      -4.18800237      -3.99492769
Br      -4.89291746      -5.43316435      -5.10096545
C       -0.88118093       0.88118093       0.88118093
C       -2.22170795       0.55730844       1.06006296
C       -3.02496359       1.36311114       1.86964113
C       -2.49515385       2.49677450       2.50295576
C       -1.14713254       2.82055337       2.31168491
C       -0.33778275       2.00356743       1.50208865
S       -0.38189979       4.21908839       3.08096503
O       -0.71735698       4.24213607       4.48769761
O        0.99009770       4.30707927       2.62185327
Cl      -1.32084314       5.80727034       2.20084113
H       -2.65158898      -0.31847812       0.57908556
H       -4.07156626       1.09223101       2.00236311
H        0.71571350       2.23734240       1.35398795
C       -3.41699927       3.24978256       3.31337533
C       -4.18904482       3.88042680       3.99210171
Br      -5.43737717       4.90012521       5.08954488
C        0.88118093      -0.88118093       0.88118093
C        2.21231883      -0.53699021       1.08977031
C        3.01550872      -1.34290557       1.89930159
C        2.49504540      -2.49691399       2.50292472
C        1.15663230      -2.84092091       2.28181761
C        0.34714983      -2.02393297       1.47235604
S        0.40317661      -4.26630698       3.01246960
O        0.71414356      -4.30867677       4.42437033
O       -0.95871466      -4.37021697       2.52733254
Cl       1.38583633      -5.82164167       2.12147662
H        2.63482707       0.35472789       0.63209724
H        4.05457987      -1.05604339       2.05553712
H       -0.69920745      -2.27354727       1.30127703
C        3.41582536      -3.24797601       3.31635578
C        4.18697858      -3.87699046       3.99760430
Br       5.43386811      -4.89405361       5.09912554
