178
Properties=species:S:1:pos:R:3 pbc="F F F"
O        2.38951421       2.69272465     -10.52893183
C        2.78826865       1.79201360      -9.79436404
C        4.22254891       1.28643253      -9.89646072
S        5.39327160       2.42268579      -9.08431502
C        4.85496612       2.23592845      -7.40062713
N        4.34069129       1.01953664      -7.05751357
N        3.75097486       0.83518672      -5.88702629
C        3.71679771       1.90896790      -5.06049630
C        3.09840105       2.09296322      -3.80096376
C        2.31533890       1.26479491      -2.97498299
C        1.79253002       1.79253002      -1.79253002
C        2.05013672       3.10731335      -1.41777215
C        2.84384418       3.94140749      -2.21435092
C        3.35563312       3.41330266      -3.41095750
N        4.13548164       3.98760294      -4.40139556
C        4.66274747       5.33348408      -4.36865022
C        4.30961177       3.10074108      -5.43391583
N        4.91419742       3.33045326      -6.61801332
N        2.03357325       1.14869589      -8.82162746
C        0.65503149       1.31877023      -8.56865930
C       -0.21331680       1.98465816      -9.43928985
C       -1.57043578       2.11978093      -9.12784065
C       -2.06658128       1.58771462      -7.94245643
Br      -3.89554392       1.78961198      -7.51382050
C       -1.21972187       0.90676055      -7.07109854
C        0.13720400       0.76731984      -7.38891018
H        4.47567124       1.22862004     -10.95977549
H        4.31676982       0.26976458      -9.50062515
H        2.10793379       0.23952535      -3.27350213
H        1.62829239       3.50460449      -0.49637908
H        3.03408684       4.96792097      -1.91499294
H        5.40937038       5.46489253      -5.15623426
H        5.13584529       5.49983446      -3.39719401
H        3.83282614       6.02930074      -4.51634283
H        2.54554622       0.59903519      -8.13418832
H        0.13324827       2.40175567     -10.37985020
H       -2.22434412       2.64380499      -9.82022691
H       -1.60184694       0.48573387      -6.14465019
H        0.78053952       0.23551904      -6.69301316
O       -0.04972939      -8.95060291      -6.61083838
C        0.21433676      -7.76892182      -6.82006123
C       -0.11655176      -7.12671284      -8.16217756
S       -1.88825524      -6.71996570      -8.29205147
C       -1.98918870      -5.46748382      -7.03484917
N       -0.86860281      -4.71537613      -6.83376257
N       -0.78160025      -3.88400030      -5.80758732
C       -1.86962490      -3.81446451      -5.00217250
C       -2.08525560      -3.11753478      -3.78953764
C       -1.28031991      -2.27679896      -2.99799793
C       -1.79253002      -1.79253002      -1.79253002
C       -3.08173020      -2.11364547      -1.37984655
C       -3.90628536      -2.93103291      -2.16228432
C       -3.38345602      -3.42972576      -3.36671151
N       -3.93497060      -4.26613851      -4.32337103
C       -5.28332393      -4.78726725      -4.29429059
C       -3.00291220      -4.55246652      -5.28888996
N       -3.12916033      -5.41389591      -6.31960776
N        0.81238687      -6.90185213      -5.91443135
C        1.32973934      -7.22980917      -4.64239119
C        1.54250533      -8.54267035      -4.21046619
C        2.05745378      -8.79931702      -2.93532256
C        2.36352447      -7.74214997      -2.08496428
Br       3.03912525      -8.09152763      -0.35548618
C        2.17377332      -6.42753210      -2.50437843
C        1.66433796      -6.17365921      -3.78411276
H        0.13145605      -7.85198448      -8.94353834
H        0.50752288      -6.24634271      -8.34833973
H       -0.26955006      -2.03339912      -3.31801209
H       -3.46223057      -1.73348329      -0.43356210
H       -4.90919562      -3.17986926      -1.82793587
H       -5.53321138      -5.23977263      -5.25751315
H       -5.97278833      -3.96176362      -4.09832181
H       -5.34346926      -5.53536463      -3.49963582
H        0.75528616      -5.90757365      -6.12648224
H        1.32863004      -9.39372327      -4.84976090
H        2.21156672      -9.82884606      -2.62240845
H        2.41407027      -5.59675555      -1.84585185
H        1.52083615      -5.14059358      -4.08931430
O        0.12116859       8.02588550       7.70645377
C        0.21227037       6.80295142       7.78396525
C       -0.37086007       6.05648713       8.97809496
S       -2.17952223       5.88034057       8.84040961
C       -2.25773192       4.81129265       7.42249712
N       -1.21761296       3.94393436       7.25619419
N       -1.09214195       3.23628047       6.14476546
C       -2.06184494       3.41057722       5.21383975
C       -2.19290191       2.89821877       3.90120734
C       -1.39402937       2.05647571       3.10461172
C       -1.79253002       1.79253002       1.79253002
C       -2.96678159       2.33162897       1.27681165
C       -3.78649739       3.15413697       2.05896822
C       -3.37569661       3.43095996       3.37323672
N       -3.94810806       4.21459189       4.36178018
C       -5.20861804       4.91286048       4.24340324
C       -3.12770424       4.25560319       5.46096126
N       -3.28882377       4.99758340       6.57625683
N        0.81992078       5.97681259       6.84700480
C        1.53967017       6.38063302       5.70149818
C        1.96329505       7.69463431       5.47929195
C        2.67262725       8.02900159       4.32081146
C        2.96301088       7.04875340       3.37784726
Br       3.90277989       7.50660655       1.80406189
C        2.56350703       5.73140062       3.59024362
C        1.85930719       5.39847155       4.75426965
H       -0.14631364       6.64358602       9.87416711
H        0.11328737       5.08404237       9.11640455
H       -0.47191035       1.64245481       3.50659611
H       -3.25837464       2.12150329       0.24939802
H       -4.69830237       3.57414661       1.64455177
H       -5.53081994       5.27731442       5.22236280
H       -5.95842279       4.21726956       3.85718142
H       -5.07153353       5.75128259       3.55565360
H        0.61697823       4.98128297       6.91446499
H        1.76763459       8.48474905       6.19773968
H        2.98881533       9.05808091       4.17042221
H        2.79016545       4.95994605       2.85875653
H        1.55417905       4.36539585       4.89785494
O        3.32308271      -1.82678109      10.46130689
C        3.72500923      -1.06264519       9.58699188
C        5.20669546      -0.72285258       9.47589411
S        6.14581599      -2.06955956       8.68489686
C        5.43438505      -1.99964059       7.05749605
N        5.01478181      -0.77405684       6.62890286
N        4.31322683      -0.64605960       5.51390144
C        4.06769364      -1.78966050       4.82890777
C        3.28824571      -2.03134870       3.67273361
C        2.50486898      -1.20830023       2.84194759
C        1.79253002      -1.79253002       1.79253002
C        1.86314065      -3.16083431       1.55124725
C        2.65291123      -3.99411029       2.35258106
C        3.35608891      -3.40670898       3.41709540
N        4.18269294      -3.96132094       4.38046626
C        4.55681407      -5.35609616       4.45197154
C        4.57103953      -2.99704724       5.27618192
N        5.28408469      -3.17015197       6.40842734
N        2.93264828      -0.44100364       8.63024468
C        1.52362641      -0.47215232       8.54668229
C        0.69909714      -0.93432898       9.57720510
C       -0.69201109      -0.93970662       9.42949027
C       -1.26612523      -0.48109806       8.24861695
Br      -3.14404726      -0.50883135       8.04310447
C       -0.46130190      -0.00157456       7.21786456
C        0.93082787       0.00876286       7.37136900
H        5.58887383      -0.58318636      10.49200657
H        5.36043422       0.22777174       8.95449708
H        2.44411202      -0.13985562       3.03699362
H        1.29526996      -3.60060905       0.73339694
H        2.69649292      -5.06183563       2.15867220
H        5.37345700      -5.49099669       5.16604348
H        4.89101509      -5.67935040       3.46250828
H        3.68128141      -5.92894948       4.76823883
H        3.41476234      -0.03189085       7.83211653
H        1.10866502      -1.28761589      10.51857323
H       -1.31095173      -1.30614549      10.24449402
H       -0.90388673       0.36130512       6.29372897
H        1.53973741       0.38376203       6.55309635
C       -0.00445707       0.01189536      -1.78238275
H       -0.66409135       0.67374010      -2.43557963
H        0.65740317      -0.63156657      -2.45157240
C       -0.90989263      -0.90692880      -0.91072765
C        0.90977584       0.90977584      -0.90977584
C       -0.00465871       1.77757030       0.00794375
H       -0.66225468       2.44313916      -0.64384735
H        0.64322798       2.43503045       0.67728295
C       -1.78241447       0.00034974      -0.00472694
H       -2.45427497      -0.65498947       0.64260836
H       -2.43311707       0.67328779      -0.65473579
C       -0.91132561       0.90220522       0.91563759
C       -0.01476271      -0.02253852       1.78660255
H       -0.67934791      -0.69751639       2.42135241
H        0.63392994       0.61504881       2.47327442
C        0.01484550      -1.77751727      -0.01636693
H        0.67870853      -2.42144646      -0.68295456
H       -0.62264859      -2.45592969       0.64226336
C        1.78714474       0.01002794       0.00389507
H        2.44202412       0.67113390       0.66197326
H        2.45385902      -0.65136977      -0.64189061
C        0.91606151      -0.90478549       0.90901405
