157
Properties=species:S:1:pos:R:3 pbc="F F F"
C        0.00000000       0.00000000       0.00000000
O        1.47961019       1.78282062      -9.61902780
C        1.87836463       0.88210958      -8.88446002
C        3.31264489       0.37652850      -8.98655669
S        4.48336757       1.51278176      -8.17441100
C        3.94506209       1.32602443      -6.49072310
N        3.43078727       0.10963262      -6.14760955
N        2.84107083      -0.07471730      -4.97712227
C        2.80689369       0.99906387      -4.15059228
C        2.18849702       1.18305919      -2.89105973
C        1.40543487       0.35489089      -2.06507897
C        0.88262599       0.88262599      -0.88262599
C        1.14023269       2.19740933      -0.50786813
C        1.93394015       3.03150346      -1.30444690
C        2.44572910       2.50339864      -2.50105348
N        3.22557762       3.07769892      -3.49149153
C        3.75284345       4.42358005      -3.45874620
C        3.39970775       2.19083706      -4.52401181
N        4.00429340       2.42054924      -5.70810930
N        1.12366923       0.23879187      -7.91172344
C       -0.25487253       0.40886620      -7.65875528
C       -1.12322082       1.07475414      -8.52938583
C       -2.48033980       1.20987690      -8.21793663
C       -2.97648530       0.67781060      -7.03255241
Br      -4.80544795       0.87970795      -6.60391648
C       -2.12962590      -0.00314347      -6.16119451
C       -0.77270002      -0.14258419      -6.47900615
H        3.56576721       0.31871602     -10.04987146
H        3.40686580      -0.64013944      -8.59072113
H        1.19802976      -0.67037867      -2.36359811
H        0.71838836       2.59470046       0.41352494
H        2.12418282       4.05801695      -1.00508891
H        4.49946636       4.55498851      -4.24633023
H        4.22594127       4.58993044      -2.48728998
H        2.92292211       5.11939672      -3.60643881
H        1.63564219      -0.31086883      -7.22428429
H       -0.77665575       1.49185164      -9.46994617
H       -3.13424814       1.73390096      -8.91032289
H       -2.51175096      -0.42417015      -5.23474617
H       -0.12936450      -0.67438498      -5.78310914
O       -0.54637692      -9.44761277      -2.88746893
C        0.14733161      -8.51238285      -3.27988299
C        0.39815974      -8.30496108      -4.76892875
S       -1.03821556      -7.54161010      -5.59073467
C       -1.01452635      -5.95244623      -4.79483704
N        0.20823202      -5.47919937      -4.41706209
N        0.31619147      -4.39720057      -3.66246671
C       -0.84643208      -3.79049732      -3.31962044
C       -1.10492286      -2.69203028      -2.46566281
C       -0.28447994      -1.85918347      -1.68174132
C       -0.88262599      -0.88262599      -0.88262599
C       -2.26352064      -0.71419215      -0.86779735
C       -3.09606235      -1.51790394      -1.65592422
C       -2.49345335      -2.50981940      -2.44690846
N       -3.04167706      -3.45771292      -3.29537808
C       -4.44936431      -3.58668221      -3.59912317
C       -2.05470783      -4.27696403      -3.78288475
N       -2.20737445      -5.37805364      -4.54752384
N        0.76083876      -7.56557954      -2.46944376
C        0.80350249      -7.55798366      -1.05826778
C        0.44250210      -8.65441933      -0.26900192
C        0.50649956      -8.58048896       1.12651567
C        0.93358098      -7.40779033       1.74033165
Br       0.99923953      -7.30303573       3.62561972
C        1.31295790      -6.31119899       0.96981594
C        1.25415316      -6.39057348      -0.42730162
H        0.56959381      -9.29029390      -5.21365461
H        1.31010435      -7.72431438      -4.94323745
H        0.79445613      -1.99762097      -1.68808436
H       -2.71348116       0.04706897      -0.23315170
H       -4.17326942      -1.38146239      -1.63255687
H       -4.59164195      -4.26326092      -4.44588222
H       -4.84216369      -2.60047689      -3.86052111
H       -4.95540045      -3.97976171      -2.71359548
H        1.10011654      -6.72178380      -2.92739039
H        0.11697873      -9.59111476      -0.71100603
H        0.21824238      -9.44593092       1.71771283
H        1.65078132      -5.39288792       1.44328154
H        1.55133005      -5.52192441      -1.00876530
O        0.40139419       4.46023579       8.82261701
C        0.15845312       3.29833844       8.50504891
C       -0.95565915       2.52235100       9.19771994
S       -2.59770863       3.00285349       8.56999822
C       -2.45507775       2.40433211       6.90239976
N       -1.66585004       1.30714016       6.71503924
N       -1.35222050       0.89384140       5.49741389
C       -1.87908237       1.60600189       4.47146558
C       -1.68338227       1.50574560       3.07348808
C       -0.89578316       0.66732188       2.26229969
C       -0.88262599       0.88262599       0.88262599
C       -1.64544623       1.89345318       0.30661074
C       -2.45187312       2.72491594       1.09310145
C       -2.45141977       2.51666056       2.48210089
N       -3.11170126       3.17917730       3.50388950
C       -4.04730202       4.26632038       3.32154729
C       -2.72431857       2.67170762       4.71853042
N       -3.06325521       3.12724327       5.94245345
N        0.82305550       2.57268855       7.52455149
C        1.96111665       2.97925605       6.79460954
C        2.74311103       4.08671851       7.13731166
C        3.85902525       4.43679099       6.36970799
C        4.19929294       3.67891306       5.25425759
Br       5.69444433       4.16577891       4.20684189
C        3.44170840       2.56271233       4.90742121
C        2.32895388       2.21086618       5.68180965
H       -0.90821116       2.76132971      10.26481383
H       -0.80010227       1.44148158       9.11586363
H       -0.29346141      -0.11724674       2.71503453
H       -1.61738856       2.05204881      -0.76987348
H       -3.03917358       3.51451797       0.63359713
H       -4.57954604       4.46595462       4.25528443
H       -4.77019569       3.97994751       2.55301850
H       -3.48628453       5.15150144       3.01097166
H        0.37178470       1.71876928       7.20207308
H        2.51773459       4.69491019       8.00796647
H        4.44935325       5.30355098       6.65577798
H        3.70422935       1.96428701       4.03876740
H        1.74998913       1.33842761       5.39092118
O       -0.32571319      -8.90278239       4.30438942
C       -0.80550106      -7.81966103       4.63077425
C       -0.77453467      -7.36500586       6.08525889
S        0.87139488      -6.74139411       6.55777135
C        0.94142526      -5.29905786       5.52132650
N       -0.24755028      -4.68826302       5.24731670
N       -0.32469683      -3.72113312       4.34703951
C        0.83914192      -3.36990490       3.74750302
C        1.10553993      -2.46140648       2.69566953
C        0.29289620      -1.62368950       1.90881903
C        0.88262599      -0.88262599       0.88262599
C        2.25176836      -0.94885966       0.64488212
C        3.08103916      -1.75954786       1.42930349
C        2.48343472      -2.51601283       2.45073367
N        3.02479371      -3.41183237       3.35814199
C        4.43072498      -3.72768945       3.47675526
C        2.02625958      -3.97910891       4.10918813
N        2.14600146      -4.97084910       5.01610137
N       -1.40443767      -6.90872032       3.76990189
C       -1.67854235      -7.09392739       2.39736391
C       -1.61196669      -8.33548041       1.75740543
C       -1.89491557      -8.45019830       0.39219100
C       -2.24739546      -7.32181209      -0.34053892
Br      -2.60865742      -7.47547288      -2.18863898
C       -2.33498773      -6.07971910       0.28369378
C       -2.05761254      -5.96922895       1.65210553
H       -1.00768112      -8.23539797       6.70663784
H       -1.55359085      -6.62270566       6.28833267
H       -0.77869227      -1.57935185       2.09058962
H        2.69362215      -0.37013086      -0.16418913
H        4.14784029      -1.80795637       1.23149201
H        4.61398565      -4.29176471       4.39503474
H        4.99690739      -2.79316369       3.51309061
H        4.72245076      -4.32038522       2.60592166
H       -1.54039135      -5.96422224       4.12522676
H       -1.35364739      -9.24103006       2.29775939
H       -1.83387329      -9.42623463      -0.08238563
H       -2.61312001      -5.19452893      -0.28258387
H       -2.12851754      -4.98996359       2.11791361
