165
Properties=species:S:1:pos:R:3 pbc="F F F"
C        0.00000000       0.00000000       0.00000000
O        1.47961019       1.78282062      -9.61902780
C        1.87836463       0.88210958      -8.88446002
C        3.31264489       0.37652850      -8.98655669
S        4.48336757       1.51278176      -8.17441100
C        3.94506209       1.32602443      -6.49072310
N        3.43078727       0.10963262      -6.14760955
N        2.84107083      -0.07471730      -4.97712227
C        2.80689369       0.99906387      -4.15059228
C        2.18849702       1.18305919      -2.89105973
C        1.40543487       0.35489089      -2.06507897
C        0.88262599       0.88262599      -0.88262599
C        1.14023269       2.19740933      -0.50786813
C        1.93394015       3.03150346      -1.30444690
C        2.44572910       2.50339864      -2.50105348
N        3.22557762       3.07769892      -3.49149153
C        3.75284345       4.42358005      -3.45874620
C        3.39970775       2.19083706      -4.52401181
N        4.00429340       2.42054924      -5.70810930
N        1.12366923       0.23879187      -7.91172344
C       -0.25487253       0.40886620      -7.65875528
C       -1.12322082       1.07475414      -8.52938583
C       -2.48033980       1.20987690      -8.21793663
C       -2.97648530       0.67781060      -7.03255241
C       -2.12962590      -0.00314347      -6.16119451
C       -0.77270002      -0.14258419      -6.47900615
H        3.56576721       0.31871602     -10.04987146
H        3.40686580      -0.64013944      -8.59072113
H        1.19802976      -0.67037867      -2.36359811
H        0.71838836       2.59470046       0.41352494
H        2.12418282       4.05801695      -1.00508891
H        4.49946636       4.55498851      -4.24633023
H        4.22594127       4.58993044      -2.48728998
H        2.92292211       5.11939672      -3.60643881
H        1.63564219      -0.31086883      -7.22428429
H       -0.77665575       1.49185164      -9.46994617
H       -3.13424814       1.73390096      -8.91032289
H       -2.51175096      -0.42417015      -5.23474617
H       -0.12936450      -0.67438498      -5.78310914
C       -4.37046939       0.83169111      -6.70585811
C       -5.53793106       0.96056603      -6.43225164
Br      -7.42561784       1.16894588      -5.98985311
O       -1.13859949      -9.58960200      -2.15325712
C       -0.33614809      -8.75138220      -2.55740394
C        0.05112452      -8.69629713      -4.03055748
S       -1.24180121      -7.89469633      -5.03406279
C       -1.14301520      -6.24893456      -4.36985987
N        0.08210044      -5.84448257      -3.92564731
N        0.22339028      -4.71269001      -3.25417607
C       -0.90536056      -3.98650904      -3.06468025
C       -1.13447556      -2.80010825      -2.32803214
C       -0.31000038      -1.97055395      -1.54485039
C       -0.88262599      -0.88262599      -0.88262599
C       -2.24010247      -0.60277586      -1.00263182
C       -3.07369513      -1.40279632      -1.79339906
C       -2.49864124      -2.50561926      -2.44592072
N       -3.05772645      -3.47700766      -3.26003396
C       -4.44221651      -3.51823218      -3.67472100
C       -2.11036520      -4.41275448      -3.59143694
N       -2.29690903      -5.56077915      -4.27526374
N        0.29072556      -7.78967535      -1.77523475
C        0.21999573      -7.66176479      -0.37097988
C       -0.29825118      -8.65204461       0.46937664
C       -0.34071723      -8.46136556       1.85460906
C        0.13672725      -7.27759505       2.40699009
C        0.67172199      -6.28699700       1.58684986
C        0.71899511      -6.48364035       0.20092330
H        0.17074011      -9.72744835      -4.37764646
H        1.02156688      -8.20859180      -4.17042256
H        0.74961605      -2.19553581      -1.44532944
H       -2.67122883       0.24501440      -0.47334945
H       -4.13314233      -1.17844197      -1.87570438
H       -4.57458162      -4.25281193      -4.47339155
H       -4.72462284      -2.53032120      -4.04821765
H       -5.05051766      -3.79002897      -2.80821101
H        0.73853159      -7.01941690      -2.26817234
H       -0.66800544      -9.59460595       0.07746932
H       -0.75050662      -9.24553827       2.48606918
H        1.04953962      -5.36092034       2.01255567
H        1.13713743      -5.69614844      -0.42034865
C        0.07758784      -7.07629074       3.83162306
C        0.02805859      -6.90769837       5.02475318
Br      -0.05202603      -6.63509878       6.95394366
O       -7.74953476       6.07806823      -0.94614438
C       -6.54971216       6.24630184      -1.15107978
C       -5.86693023       7.54401603      -0.73521618
S       -5.53295333       7.58165415       1.05595285
C       -4.33984450       6.26776850       1.15419662
N       -3.54854462       6.08110572       0.05837910
N       -2.75787477       5.02410751      -0.03850648
C       -2.76977552       4.17155488       1.01521944
C       -2.13434753       2.92164083       1.20662759
C       -1.29311627       2.12851125       0.40377721
C       -0.88262599       0.88262599       0.88262599
C       -1.27680641       0.43073769       2.13796604
C       -2.09597123       1.21293934       2.96097994
C       -2.52043823       2.45886126       2.47088172
N       -3.33935749       3.42723399       3.02817659
C       -3.91970215       3.36451222       4.35095532
C       -3.54396403       4.44254262       2.12804996
N       -4.36615794       5.50374516       2.26304883
N       -5.69602001       5.32947399      -1.75130947
C       -6.05403849       4.09577799      -2.33706753
C       -7.37328055       3.73096003      -2.62332143
C       -7.66035460       2.49094765      -3.20382853
C       -6.62736487       1.60874789      -3.50223506
C       -5.30588713       1.96196521      -3.23942719
C       -5.02114841       3.20691207      -2.66433854
H       -6.54729776       8.36604274      -0.97898579
H       -4.95309107       7.71748555      -1.31312914
H       -0.99256440       2.47963531      -0.58095052
H       -0.95361644      -0.54637074       2.49231818
H       -2.40220642       0.84807421       3.93700805
H       -4.34195550       4.33528498       4.62354461
H       -3.13406736       3.10392920       5.06516513
H       -4.70234321       2.60150516       4.34490927
H       -4.69718007       5.49527117      -1.64339359
H       -8.20534433       4.39733345      -2.41753572
H       -8.69436373       2.23007723      -3.41446524
H       -4.49371286       1.27838850      -3.47327630
H       -3.98346830       3.46037391      -2.46448256
C       -6.92586337       0.32621875      -4.08500229
C       -7.17585586      -0.74789941      -4.57306984
Br      -7.58007257      -2.48465762      -5.36223380
O        7.71824004       0.95341188       6.11663045
C        7.64947373       0.89568470       4.89114520
C        8.66577332       0.08524735       4.09520411
S        8.30411443      -1.69949316       4.16695274
C        6.76212733      -1.71671774       3.28296454
N        6.60509509      -0.76819472       2.31473963
N        5.43399505      -0.58296273       1.72651802
C        4.42957848      -1.40067163       2.12629973
C        3.05613740      -1.42069271       1.78578583
C        2.25406085      -0.62693514       0.94440873
C        0.88262599      -0.88262599       0.88262599
C        0.31072370      -1.91361490       1.62117155
C        1.09378026      -2.72824346       2.44786679
C        2.47039112      -2.45925940       2.52053069
N        3.47973586      -3.06077633       3.25425587
C        3.30992504      -4.20934820       4.11589645
C        4.66052090      -2.38734537       3.06669034
N        5.83578106      -2.60433599       3.69283488
N        6.68952820       1.52058937       4.10524570
C        5.69298180       2.42091488       4.54068203
C        5.68866517       3.01453575       5.80678972
C        4.66933470       3.89842614       6.17656516
C        3.64817636       4.19408509       5.27978644
C        3.64511475       3.62510450       4.00841490
C        4.67067074       2.74572916       3.63878036
H        9.64872169       0.25874931       4.54438232
H        8.73299645       0.43533049       3.05978152
H        2.70139390       0.18411301       0.37396831
H       -0.76130189      -2.09406668       1.56679910
H        0.63611761      -3.52687334       3.02429772
H        4.28472115      -4.61025321       4.40581074
H        2.75651525      -4.97748708       3.56915936
H        2.75413315      -3.89248097       5.00214352
H        6.60665608       1.19996041       3.14236198
H        6.47506647       2.81935413       6.52942973
H        4.68749209       4.34497174       7.16745537
H        2.85172385       3.85459159       3.30169280
H        4.64654523       2.31049774       2.64331218
C        2.59106180       5.09166319       5.66768122
C        1.70572836       5.84338485       5.99254310
Br       0.27421906       7.05885520       6.51781729
