141
Properties=species:S:1:pos:R:3 pbc="F F F"
C        0.00000000       0.00000000       0.00000000
C        0.88278504       0.88278504      -0.88278504
C        2.27545543       0.89901769      -0.66786329
C        3.10925879       1.69179433      -1.46468364
C        2.50532228       2.44200786      -2.45064044
C        1.13868369       2.42946640      -2.65358871
C        0.29455472       1.65540966      -1.88613044
O        0.74212534       3.26121189      -3.68911743
C        1.95890470       3.80235435      -4.12772173
O        2.03976884       4.61492324      -5.03885854
N        3.01683004       3.29803366      -3.39645731
C        4.40582939       3.63739326      -3.58593066
C        4.81677094       4.87548528      -2.79184623
C        6.28175716       5.20275745      -3.02624040
O        6.97960011       4.45940819      -3.72075219
N        6.77024206       6.34575064      -2.40000334
C        6.12178279       7.20945321      -1.50865272
O        4.96834227       7.12366233      -1.10773722
O        6.96968264       8.23987399      -1.07900200
C        8.15084636       7.95235976      -1.73395611
C        9.31055135       8.69333827      -1.61980984
C       10.41691502       8.26010843      -2.35040062
Br      12.04015566       9.22422154      -2.24399519
C       10.34471897       7.11720987      -3.16540251
C        9.15386952       6.38671902      -3.26049114
C        8.06636365       6.82748670      -2.52943032
H        2.71319991       0.29044148       0.12081367
H        4.18050466       1.70255344      -1.30326155
H       -0.77473607       1.65282306      -2.06306125
H        4.56038529       3.82499839      -4.65601318
H        5.02617026       2.77258276      -3.32313725
H        4.65992250       4.69134787      -1.72341297
H        4.20402064       5.72881526      -3.10265062
H        9.35074549       9.57284432      -0.98673061
H       11.21503214       6.78969110      -3.73092424
H        9.11026540       5.50678568      -3.89425801
C       -0.88278504      -0.88278504      -0.88278504
C       -0.44032002      -1.22601760      -2.17599878
C       -1.22364270      -2.03819160      -3.00390246
C       -2.42834094      -2.47405423      -2.49557541
C       -2.86245615      -2.12930530      -1.22997734
C       -2.10975668      -1.33403885      -0.39229928
O       -4.10257151      -2.66704161      -0.92284154
C       -4.42277335      -3.37833892      -2.08786850
O       -5.46980310      -3.99561758      -2.22812994
N       -3.41149743      -3.27641968      -3.02340391
C       -3.41124477      -3.88843242      -4.32947612
C       -4.08737857      -3.01369008      -5.38303380
C       -4.07338789      -3.69791337      -6.73945375
O       -3.49786412      -4.77971817      -6.88217819
N       -4.70952018      -3.02676952      -7.77970634
C       -5.30207684      -1.75796533      -7.77984653
O       -5.38133169      -0.98212697      -6.83628316
O       -5.81820073      -1.42922389      -9.04113401
C       -5.50001037      -2.54020482      -9.79694704
C       -5.79867003      -2.68794449     -11.13708494
C       -5.40112392      -3.87594769     -11.75035245
Br      -5.77528114      -4.14944955     -13.58364171
C       -4.72614393      -4.87428563     -11.02690179
C       -4.43774989      -4.69489349      -9.66843630
C       -4.83670543      -3.51172714      -9.07484809
H        0.51863418      -0.86214494      -2.53931696
H       -0.88327617      -2.30610979      -3.99693369
H       -2.46279518      -1.07836986       0.60001679
H       -3.94818258      -4.84221393      -4.25100036
H       -2.37998940      -4.12797011      -4.61393077
H       -3.55475332      -2.05954890      -5.46038113
H       -5.12498545      -2.82254024      -5.08796083
H       -6.31994129      -1.90854621     -11.68183292
H       -4.42159101      -5.79714152     -11.51691495
H       -3.91728221      -5.47369786      -9.12032902
C       -0.88278504       0.88278504       0.88278504
C       -1.64456733       0.28886126       1.90890782
C       -2.45621777       1.07237339       2.73714559
C       -2.47040226       2.42966246       2.49790586
C       -1.72806026       3.00765294       1.48602559
C       -0.91763185       2.26044007       0.65802290
O       -1.89525687       4.38185388       1.41534391
C       -2.79901304       4.63241148       2.45755626
O       -3.22269842       5.74949598       2.72135622
N       -3.13003971       3.46446731       3.11681400
C       -4.02985746       3.36006791       4.23922794
C       -5.48480868       3.19316567       3.80612811
C       -6.39825637       3.09622656       5.01627209
O       -5.92107122       3.08484767       6.15384160
N       -7.76221542       2.99592504       4.75785558
C       -8.42210190       2.89055483       3.52723198
O       -7.90943182       2.87457811       2.41573188
O       -9.81018826       2.78541773       3.69295264
C       -9.95402436       2.81720385       5.06593402
C      -11.16215030       2.73214616       5.72940300
C      -11.12724684       2.77712795       7.12304928
Br     -12.74232067       2.66581637       8.10023536
C       -9.90963028       2.90402574       7.81367533
C       -8.70063117       2.98821108       7.11223743
C       -8.75107414       2.94076580       5.73144072
H       -1.60407526      -0.78711327       2.06586573
H       -3.03958021       0.61785843       3.52888101
H       -0.33714731       2.73101814      -0.12701721
H       -3.93100584       4.27791747       4.83247355
H       -3.70873480       2.53169625       4.88145922
H       -5.58486112       2.27906397       3.21075825
H       -5.78558084       4.05276288       3.19714280
H      -12.09343095       2.63438150       5.18250796
H       -9.89582436       2.93841854       8.90140458
H       -7.76711960       3.08737170       7.65681779
C        0.88278504      -0.88278504       0.88278504
C        1.36704128      -2.10356521       0.37172992
C        2.18278040      -2.92893518       1.15402118
C        2.47941644      -2.49158329       2.42697085
C        1.99662821      -1.29765143       2.92745916
C        1.19448426      -0.46383800       2.17777256
O        2.40866358      -1.05523929       4.22855179
C        3.18854579      -2.18433712       4.51609788
O        3.73227656      -2.36393697       5.59733709
N        3.24461983      -3.03644725       3.43025394
C        3.96263354      -4.28637895       3.38014082
C        3.12989185      -5.45787204       3.89633856
C        3.92494821      -6.75105597       3.83475084
O        5.05634006      -6.76036596       3.34305446
N        3.29644992      -7.89015350       4.32939262
C        1.99000075      -8.03872212       4.81116584
O        1.13363986      -7.16828753       4.89781443
O        1.72958667      -9.36070467       5.19826728
C        2.92162200      -9.99847677       4.91706345
C        3.15807904     -11.34347650       5.12214392
C        4.42078465     -11.82697687       4.77966255
Br       4.81785196     -13.65847545       5.03204499
C        5.40402358     -10.97391796       4.24938981
C        5.13378164      -9.61403368       4.05326437
C        3.87742919      -9.14982620       4.39602528
H        1.11062598      -2.41197215      -0.63977042
H        2.55900612      -3.86595675       0.76135678
H        0.82950340       0.47235687       2.58400172
H        4.86183442      -4.17958830       3.99997414
H        4.30462727      -4.46349891       2.35376409
H        2.22990376      -5.56393286       3.28084673
H        2.83457984      -5.26698151       4.93392518
H        2.38922118     -11.98906242       5.53203682
H        6.38572516     -11.36339601       3.98652630
H        5.90170414      -8.96522437       3.64438058
