181
Properties=species:S:1:pos:R:3 pbc="F F F"
C        0.00000000       0.00000000       0.00000000
C        0.88185794       0.88185794      -0.88185794
C        1.25772523       2.14779122      -0.43575441
C        2.05635151       2.96282754      -1.24458282
C        2.47184011       2.51075022      -2.50390395
C        2.10297901       1.22890497      -2.93403537
C        1.30487524       0.41529749      -2.12517537
C        3.28911547       3.35911953      -3.42029674
O        3.96836172       2.82817205      -4.29866923
C        3.22794379       4.87601536      -3.23936840
O        3.43847804       5.62195491      -4.43720402
C        2.43534403       5.47484419      -5.34915244
O        1.46548673       4.74432481      -5.19776191
C        2.62673444       6.43854896      -6.50622916
C        2.08248916       5.88342224      -7.82147951
C        0.55597517       5.84214362      -7.87697653
N       -0.07633993       7.09231254      -7.44359787
C        0.43568646       7.66814191      -6.20306118
C        1.95795993       7.77218209      -6.17875579
C       -1.45882643       7.30694891      -7.67055041
O       -2.13363792       7.95385812      -6.86721208
C       -2.07377670       6.74342351      -8.86124131
C       -3.37714917       6.33235301      -9.07922878
C       -3.45516659       5.90882553     -10.42827451
C       -2.20653306       6.11858187     -10.96463867
O       -1.36816919       6.63713886     -10.03000915
H        0.93262356       2.50964548       0.53646966
H        2.34273167       3.93877963      -0.86433487
H        2.42290725       0.86490658      -3.90928697
H        1.01598271      -0.57114989      -2.47690548
H        4.02157573       5.15566435      -2.53863301
H        2.27186049       5.18827798      -2.80314591
H        3.70678189       6.59001155      -6.63013066
H        2.48118269       4.87994501      -8.01084981
H        2.43849511       6.52584394      -8.63775875
H        0.27079288       5.58431972      -8.89716990
H        0.15599750       5.04075233      -7.24567061
H        0.01503627       8.67118024      -6.06555213
H        0.07007977       7.05332937      -5.37166019
H        2.27562112       8.51915542      -6.91740932
H        2.27980508       8.13695786      -5.19572460
H       -4.16585134       6.33745666      -8.33912461
H       -4.31854931       5.51291405     -10.94398490
C       -1.82938202       5.83554960     -12.32524509
C       -1.51351803       5.59851008     -13.46475297
Br      -1.00279266       5.21523722     -15.30724083
C       -0.88185794      -0.88185794      -0.88185794
C       -1.29234507      -0.41828107      -2.13064473
C       -2.10867320      -1.21817498      -2.93691369
C       -2.51911159      -2.48004507      -2.48733764
C       -2.08503353      -2.94309282      -1.23779299
C       -1.26945354      -2.14305344      -0.43284113
C       -3.42362009      -3.35240949      -3.29250217
O       -3.43771167      -4.56649927      -3.09099206
C       -4.32394061      -2.68619616      -4.33319077
O       -5.55242672      -3.37025045      -4.57495979
C       -6.40330738      -3.34643938      -3.50959390
O       -6.14227731      -2.83728911      -2.42800704
C       -7.75454756      -3.91811596      -3.89884903
C       -8.45444732      -4.60542061      -2.72752298
C       -8.97331260      -3.62857247      -1.67321025
N       -9.71797363      -2.50020551      -2.24139134
C       -9.09276116      -1.83365677      -3.38047163
C       -8.63774411      -2.80733074      -4.46382296
C      -10.47320907      -1.64820563      -1.39725819
O      -10.58470863      -0.44799987      -1.65472377
C      -11.10730712      -2.20847605      -0.21510496
C      -11.41695409      -1.61233929       0.99486075
C      -12.07110724      -2.59184341       1.78101720
C      -12.15440009      -3.71637908       0.99409170
O      -11.58845885      -3.49053135      -0.21998862
H       -0.98540158       0.56310782      -2.48350561
H       -2.40181283      -0.83451539      -3.90951796
H       -2.39432276      -3.92371415      -0.87906389
H       -0.95102984      -2.50968853       0.53898008
H       -3.77254159      -2.66432568      -5.27900581
H       -4.55524874      -1.65067270      -4.05736295
H       -7.57797168      -4.67626122      -4.67269121
H       -7.78635125      -5.33322166      -2.25240461
H       -9.30932543      -5.16990876      -3.12286360
H       -9.58463715      -4.19628031      -0.97136504
H       -8.15259007      -3.20962516      -1.08020520
H       -9.80278497      -1.12547320      -3.82351047
H       -8.24913865      -1.24352023      -3.00241045
H       -9.52220575      -3.25990838      -4.93007173
H       -8.10983399      -2.25318859      -5.24946496
H      -11.18514742      -0.59115846       1.26557595
H      -12.44446861      -2.48334351       2.78946248
C      -12.75740454      -4.96299262       1.38898449
C      -13.26242077      -6.00703146       1.71970720
Br     -14.07898929      -7.69515396       2.25445786
C       -0.88185794       0.88185794       0.88185794
C       -1.37154884       2.08746061       0.38226142
C       -2.17064615       2.90312429       1.18999143
C       -2.47245164       2.51277795       2.50126469
C       -1.98966943       1.28978819       2.98646173
C       -1.19119237       0.47551132       2.17864441
C       -3.28549847       3.36780997       3.41522331
O       -3.86893495       2.85587700       4.37039106
C       -3.34028129       4.86950951       3.13353675
O       -3.52417886       5.68081758       4.29264052
C       -2.45685569       5.66131040       5.14117458
O       -1.45088576       4.98588570       4.97080199
C       -2.63925062       6.68785284       6.24440909
C       -1.97490747       6.26035040       7.55213304
C       -0.44875137       6.32104086       7.50530308
N        0.06717909       7.57653190       6.95021767
C       -0.56171258       8.03183932       5.71333765
C       -2.08595082       8.03604499       5.78690200
C        1.44339178       7.89452424       7.06754043
O        2.01927328       8.52676931       6.17993624
C        2.17070858       7.45465268       8.24694402
C        3.51051022       7.14401276       8.40093008
C        3.70382810       6.81992136       9.76584019
C        2.48075293       6.98540548      10.37203493
O        1.55053115       7.38373563       9.46577435
H       -1.13511319       2.40187863      -0.63119245
H       -2.54712380       3.83029033       0.76843205
H       -2.22061309       0.97377529       4.00271242
H       -0.81332381      -0.46389887       2.57231335
H       -4.19456556       5.04890647       2.47240105
H       -2.43784942       5.21182863       2.61360634
H       -3.71695981       6.77782351       6.43214079
H       -2.29083633       5.24871395       7.83242723
H       -2.32102127       6.93308364       8.34799288
H       -0.08166084       6.15265508       8.51796658
H       -0.03608130       5.50555414       6.90078500
H       -0.22056536       9.04800619       5.48319709
H       -0.20890530       7.38617188       4.89999215
H       -2.40604493       8.81000282       6.49613811
H       -2.49449455       8.31110601       4.80688698
H        4.24787026       7.14893949       7.60966071
H        4.62365538       6.51655891      10.24544610
C        2.21201857       6.77276615      11.77066510
C        1.98695355       6.59468070      12.94201787
Br       1.62304244       6.30673160      14.83599622
C        0.88185794      -0.88185794       0.88185794
C        1.05560779      -0.55901663       2.22664645
C        1.87079968      -1.35774242       3.03521976
C        2.51741988      -2.47610693       2.49296748
C        2.32055444      -2.80134603       1.14401888
C        1.50590564      -2.00257609       0.33686637
C        3.42993394      -3.33441798       3.30417982
O        3.64896704      -4.49345348       2.95278247
C        4.08082724      -2.71923366       4.54326665
O        5.35556590      -3.26805951       4.87401156
C        6.32324710      -2.97809756       3.95799600
O        6.13090862      -2.35253374       2.92413109
C        7.68283129      -3.42274613       4.46593512
C        8.62109977      -3.83387892       3.33241222
C        9.12098558      -2.65356706       2.50054268
N        9.61162157      -1.53535171       3.31259720
C        8.75380182      -1.13022175       4.42286598
C        8.31233267      -2.30351348       5.29305167
C       10.33476600      -0.47817592       2.70573097
O       10.23376265       0.67510185       3.12877146
C       11.19112990      -0.77157937       1.56817886
C       11.56206440       0.03151667       0.50388489
C       12.44918599      -0.72893477      -0.29618731
C       12.59595725      -1.93727451       0.34345572
O       11.85173386      -1.96779282       1.47945214
H        0.56432983       0.31186410       2.65333365
H        1.97673313      -1.08754070       4.08157234
H        2.81477277      -3.67030604       0.71202198
H        1.37256171      -2.25944419      -0.71026761
H        3.41543623      -2.90828986       5.39214700
H        4.19010685      -1.63329489       4.43988265
H        7.52231607      -4.30321027       5.10139776
H        8.13442950      -4.56319225       2.67435577
H        9.49207754      -4.33610031       3.77391994
H        9.89445275      -3.02813837       1.82969138
H        8.33037832      -2.26048832       1.85155380
H        9.28860530      -0.41002506       5.05313828
H        7.88785490      -0.60395546       4.00325897
H        9.18668733      -2.70266504       5.82283350
H        7.61191285      -1.94391510       6.05665959
H       11.21864735       1.04317994       0.33526252
H       12.92876462      -0.42563424      -1.21604923
C       13.42214567      -3.02403349      -0.11476649
C       14.11407847      -3.93419415      -0.49852760
Br      15.23287529      -5.40584694      -1.11903684
