45
Properties=species:S:1:pos:R:3 pbc="F F F"
C        0.00000000       0.00000000       0.00000000
C        0.86854005       0.86854005      -0.86854005
C        0.63444360       2.17790211      -0.99763157
C        1.47278763       3.04726231      -1.84479903
O        1.21654740       4.24298763      -1.91377425
C        2.59885722       2.40801202      -2.57915935
C        2.83375085       1.09881610      -2.44897233
C        2.00579943       0.23219832      -1.58864969
O        2.27749699      -0.95778070      -1.49966461
Br       3.66196149       3.48145854      -3.67679795
H       -0.18364425       2.67356643      -0.48684510
H        3.64582799       0.60123084      -2.96788597
C       -0.86854005      -0.86854005      -0.86854005
C       -0.34082966      -1.79535035      -1.67379727
C       -1.17400492      -2.65656085      -2.53428320
O       -0.63366886      -3.49739515      -3.24224528
C       -2.64725303      -2.44767292      -2.49110263
C       -3.17504409      -1.52171381      -1.68478138
C       -2.34328605      -0.67173337      -0.81162803
O       -2.88501182       0.15089053      -0.08525961
Br      -3.72378617      -3.50882665      -3.58760516
H        0.72805487      -1.96595260      -1.73886955
H       -4.24345921      -1.34418359      -1.62730201
C       -0.86854005       0.86854005       0.86854005
C       -1.78003727       1.69031589       0.33962412
C       -2.64093425       2.55112001       1.17279471
O       -3.46742567       3.27476995       0.63111366
C       -2.44947058       2.48883257       2.64772545
C       -1.53883743       1.66600169       3.17670017
C       -0.68932903       0.79264460       2.34467382
O        0.11872957       0.05078392       2.88732656
Br      -3.51039974       3.58515600       3.72466225
H       -1.93761239       1.76946496      -0.73031007
H       -1.37424370       1.59437035       4.24633075
C        0.86854005      -0.86854005       0.86854005
C        1.71110011      -0.33861555       1.76026161
C        2.57230396      -1.17179064       2.62075438
O        3.31569946      -0.62889387       3.42871595
C        2.48596618      -2.64825938       2.45180302
C        1.64236309      -3.17821477       1.56096142
C        0.76875901      -2.34583589       0.71205254
O        0.00741222      -2.88917204      -0.07720336
Br       3.58205138      -3.72571053       3.51245608
H        1.80796176       0.73220689       1.90101241
H        1.55291931      -4.24894481       1.41308069
