169
Properties=species:S:1:pos:R:3 pbc="F F F"
C        0.00000000       0.00000000       0.00000000
O        6.20118935       7.42868562      -5.68454914
C        6.74005112       6.65208803      -4.90590707
C        7.11216353       5.23077691      -5.25085757
S        6.06121354       4.02839703      -4.37928572
C        4.44302616       4.48560997      -5.10202188
C        3.32923240       3.56404728      -4.61640044
O        2.48197206       3.15431248      -5.40810569
N        3.34720054       3.33730273      -3.25261261
C        2.49249053       2.50499553      -2.50358727
C        1.48842308       1.71333475      -3.06668418
C        0.68377474       0.90148055      -2.25819780
C        0.88134928       0.88134928      -0.88134928
C        1.87992592       1.66104461      -0.30420319
C        2.68498730       2.46784232      -1.11644636
O        7.07426379       6.94893101      -3.61893303
C        6.60777765       8.22029086      -3.16417465
C        5.11873565       8.20420990      -2.81716045
O        4.44946330       7.17056977      -2.85074546
C        4.47449626       9.48524944      -2.39056476
C        3.09334388       9.48703668      -2.13972171
C        2.45055608      10.65302641      -1.71273516
C        3.18677342      11.82187324      -1.53593752
C        4.55758924      11.83578421      -1.78685020
C        5.20212107      10.66950672      -2.21478842
H        8.16193307       5.06517493      -4.98833238
H        7.02272469       5.08433577      -6.33207885
H        4.51396055       4.39384916      -6.19096178
H        4.17326857       5.51298024      -4.84354611
H        4.08835036       3.80753193      -2.74587674
H        1.30864726       1.69542299      -4.13645057
H       -0.08838133       0.29250812      -2.71995799
H        2.04193202       1.64988332       0.76996907
H        3.45938806       3.06880713      -0.64725887
H        6.82531269       8.99362487      -3.90922485
H        7.16700567       8.44726495      -2.25081050
H        2.50740404       8.57808641      -2.27205086
H        1.38067002      10.63508205      -1.52005715
H        5.13350284      12.74830067      -1.64966758
H        6.27173051      10.72069277      -2.39390675
C        2.53031442      13.02207885      -1.08630648
C        1.98053000      14.02725104      -0.70974048
Br       1.09157510      15.65252947      -0.10086510
O       -7.42531269      -5.67672686      -6.21238454
C       -6.64029638      -4.90654452      -6.75120533
C       -5.21888428      -5.26295582      -7.11195790
S       -4.01766420      -4.39234422      -6.05888788
C       -4.48984618      -5.10172270      -4.43908914
C       -3.57231532      -4.61484711      -3.32251768
O       -3.17310263      -5.40368930      -2.46759831
N       -3.33669485      -3.25267974      -3.34774129
C       -2.50506637      -2.50350691      -2.49250005
C       -1.72347520      -3.06518217      -1.47978464
C       -0.91159662      -2.25674199      -0.67511448
C       -0.88134928      -0.88134928      -0.88134928
C       -1.65092023      -0.30566656      -1.88858692
C       -2.45776406      -1.11789834      -2.69361358
O       -6.92671515      -3.61987588      -7.09553680
C       -8.19807901      -3.15401246      -6.64015169
C       -8.18928183      -2.79753934      -5.15328484
O       -7.16017670      -2.83342372      -4.47717811
C       -9.47164190      -2.35863248      -4.52003609
C       -9.48064125      -2.09890621      -3.14055480
C      -10.64794445      -1.66035300      -2.50802019
C      -11.81090197      -1.48082845      -3.25285377
C      -11.81766667      -1.74045755      -4.62209943
C      -10.65007070      -2.17997545      -5.25637006
H       -5.04489296      -5.00825059      -8.16229682
H       -5.07997393      -6.34449323      -7.01467215
H       -4.40463878      -6.19166036      -4.50247235
H       -5.51723570      -4.83495802      -4.17760120
H       -3.79891011      -2.74772630      -4.09512263
H       -1.71359252      -4.13386293      -1.29306538
H       -0.31055271      -2.71740876       0.10387670
H       -1.63181628       0.76734839      -2.05737838
H       -3.05073856      -0.64987018      -3.47484532
H       -8.97478259      -3.89548951      -6.85789030
H       -8.41559660      -2.24283187      -7.20665264
H       -8.57632340      -2.23326983      -2.54794808
H      -10.63559814      -1.46091719      -1.43929389
H      -12.72558342      -1.60115340      -5.20473427
H      -10.69557191      -2.36563794      -6.32512018
C      -13.01236137      -1.01932511      -2.60701326
C      -14.01858363      -0.63281606      -2.06612183
Br     -15.64555990      -0.00786363      -1.19154614
O       -6.07628851       5.77977667       7.45835892
C       -5.00680824       6.22737496       7.06386303
C       -4.83331145       6.98831160       5.77217495
S       -3.90544185       6.02290018       4.54055427
C       -5.06895414       4.62479868       4.33690519
C       -4.59580612       3.65073283       3.26314116
O       -5.40148052       3.18219915       2.46071056
N       -3.25626063       3.32194748       3.35890777
C       -2.50645044       2.49294389       2.50167900
C       -3.02315259       1.89656788       1.34872155
C       -2.21284014       1.09239995       0.53821300
C       -0.88134928       0.88134928       0.88134928
C       -0.34930938       1.47118366       2.02468067
C       -1.16156129       2.27794459       2.82977009
O       -3.82073538       6.09950477       7.72188768
C       -3.86936360       5.25201026       8.87086930
C       -3.87097799       3.76848221       8.50064580
O       -3.75040463       3.38372534       7.33664856
C       -3.98795503       2.76151602       9.60083942
C       -4.06043069       1.40239045       9.25728113
C       -4.14334374       0.42211135      10.25086256
C       -4.15499447       0.79774149      11.59184823
C       -4.08942454       2.14379072      11.94700839
C       -4.00692831       3.12603338      10.95345451
H       -4.30862712       7.92618957       5.98062368
H       -5.81730507       7.25112103       5.37071321
H       -6.04052407       5.02707143       4.03117599
H       -5.18603175       4.07139003       5.27237313
H       -2.75693624       3.76098029       4.12384250
H       -4.05375314       2.04351294       1.04325475
H       -2.63689438       0.64213937      -0.35494898
H        0.68989756       1.31284638       2.29889745
H       -0.72777195       2.72991157       3.71777054
H       -4.73930584       5.49964884       9.48920773
H       -2.96110480       5.45749490       9.44648141
H       -4.04953806       1.09628917       8.21171408
H       -4.19539866      -0.62596263       9.96637319
H       -4.09905069       2.43835987      12.99406053
H       -3.95195380       4.16256274      11.27181348
C       -4.22977482      -0.20940480      12.61832972
C       -4.29240337      -1.05288982      13.47800797
Br      -4.39366842      -2.41673375      14.86803499
O        6.78920428      -7.10533100       5.41988882
C        7.18645599      -5.98452582       5.12706442
C        6.90362472      -4.74697896       5.94319432
S        5.74994119      -3.62717881       5.09177630
C        4.28668882      -4.72427424       5.01969495
C        3.07984710      -4.01382712       4.41600589
O        1.96618060      -4.16183269       4.91637694
N        3.36824274      -3.30345549       3.26541766
C        2.49420946      -2.50774060       2.49912327
C        1.15938066      -2.27164058       2.83742078
C        0.35307437      -1.45914823       2.03123049
C        0.88134928      -0.88134928       0.88134928
C        2.21053169      -1.10302418       0.53161784
C        3.01435894      -1.91228541       1.34263163
O        7.93014892      -5.68695203       4.02502689
C        8.10211991      -6.77485568       3.11526757
C        6.85864411      -7.02118693       2.26027497
O        5.87135798      -6.28637617       2.31304439
C        6.86828947      -8.17453000       1.30749100
C        5.70253179      -8.44413102       0.57343946
C        5.67110374      -9.49433288      -0.34911897
C        6.80540338     -10.27939536      -0.54021455
C        7.96771818     -10.02652072       0.18598475
C        8.00034711      -8.97595816       1.11011094
H        7.84737119      -4.22827717       6.13979201
H        6.48749642      -5.03884195       6.91280095
H        4.03177416      -5.02588650       6.04111083
H        4.49281540      -5.61564612       4.42133339
H        4.33519335      -3.34230722       2.96425847
H        0.71311374      -2.69750205       3.72990504
H       -0.68100591      -1.28803816       2.31705252
H        2.63136714      -0.65424429      -0.36376516
H        4.04942456      -2.07292529       1.05310421
H        8.38709722      -7.68286221       3.65820298
H        8.92317631      -6.49413023       2.44777457
H        4.80982127      -7.83523033       0.71248971
H        4.76050792      -9.68653740      -0.91123610
H        8.85406950     -10.63942836       0.03797323
H        8.92650754      -8.80847007       1.65135242
C        6.78032430     -11.35532613      -1.49695068
C        6.75932056     -12.25641815      -2.29821719
Br       6.72535930     -13.71340773      -3.59379736
