190
Properties=species:S:1:pos:R:3 pbc="F F F"
O        7.11109337       8.33858964      -6.59445316
C        7.64995515       7.56199206      -5.81581110
C        8.02206755       6.14068093      -6.16076159
S        6.97111756       4.93830106      -5.28918975
C        5.35293018       5.39551399      -6.01192591
C        4.23913642       4.47395130      -5.52630446
O        3.39187608       4.06421650      -6.31800972
N        4.25710457       4.24720676      -4.16251664
C        3.40239456       3.41489955      -3.41349129
C        2.39832711       2.62323877      -3.97658820
C        1.59367876       1.81138458      -3.16810182
C        1.79125331       1.79125331      -1.79125331
C        2.78982994       2.57094863      -1.21410721
C        3.59489132       3.37774634      -2.02635038
O        7.98416781       7.85883504      -4.52883705
C        7.51768167       9.13019489      -4.07407868
C        6.02863968       9.11411393      -3.72706447
O        5.35936732       8.08047380      -3.76064949
C        5.38440029      10.39515346      -3.30046879
C        4.00324791      10.39694070      -3.04962573
C        3.36046010      11.56293043      -2.62263919
C        4.09667744      12.73177727      -2.44584155
C        5.46749326      12.74568823      -2.69675423
C        6.11202509      11.57941074      -3.12469244
H        9.07183709       5.97507895      -5.89823640
H        7.93262871       5.99423979      -7.24198288
H        5.42386457       5.30375319      -7.10086580
H        5.08317259       6.42288426      -5.75345013
H        4.99825439       4.71743596      -3.65578077
H        2.21855128       2.60532702      -5.04635460
H        0.82152269       1.20241214      -3.62986201
H        2.95183604       2.55978735      -0.13993495
H        4.36929209       3.97871116      -1.55716290
H        7.73521671       9.90352890      -4.81912888
H        8.07690969       9.35716898      -3.16071452
H        3.41730807       9.48799044      -3.18195488
H        2.29057405      11.54498607      -2.42996117
H        6.04340686      13.65820469      -2.55957161
H        7.18163453      11.63059680      -3.30381077
C        3.44021844      13.93198287      -1.99621050
C        2.89043402      14.93715507      -1.61964450
Br       2.00147912      16.56243349      -1.01076913
O       -6.52493191      -7.21694584      -8.30225843
C       -5.82753758      -7.75118499      -7.44903574
C       -6.27688021      -8.01411841      -6.03251147
S       -5.41346801      -6.94338488      -4.84175548
C       -6.00707418      -5.31723704      -5.43605887
C       -5.50800956      -4.17878456      -4.55259806
O       -6.26836350      -3.26323307      -4.24250573
N       -4.16343317      -4.26199393      -4.24140086
C       -3.41272409      -3.40252153      -3.41553979
C       -3.95781998      -2.32043550      -2.71989860
C       -3.14976648      -1.51556533      -1.90783335
C       -1.79125331      -1.79125331      -1.79125331
C       -1.23251560      -2.86794636      -2.47442383
C       -2.04463191      -3.67269732      -3.28165882
O       -4.54858022      -8.17736779      -7.64589189
C       -3.99271737      -7.81752582      -8.91171204
C       -3.55592863      -6.35303805      -8.96085139
O       -3.60816956      -5.62038925      -7.97193179
C       -3.01658635      -5.81504358     -10.24839262
C       -2.68124607      -4.45356733     -10.31500094
C       -2.14829455      -3.90993667     -11.48779850
C       -1.94962883      -4.72596763     -12.59869980
C       -2.28348720      -6.07811001     -12.54833851
C       -2.81751140      -6.62340529     -11.37521158
H       -6.08976349      -9.06514364      -5.79024532
H       -7.35719679      -7.85308098      -5.95857361
H       -7.10180605      -5.31892287      -5.40775465
H       -5.67312494      -5.12693161      -6.45945044
H       -3.67695029      -5.05898138      -4.63553944
H       -5.01366945      -2.07799059      -2.77857285
H       -3.59758934      -0.68173038      -1.37447713
H       -0.17286942      -3.09114631      -2.38754261
H       -1.59001283      -4.50870627      -3.80644704
H       -4.70354440      -8.03870903      -9.71562106
H       -3.10398292      -8.44187115      -9.04893912
H       -2.82977050      -3.80590895      -9.45157393
H       -1.89128036      -2.85400371     -11.52023722
H       -2.12930021      -6.71628078     -13.41560218
H       -3.05906457      -7.68190413     -11.37507340
C       -1.39128034      -4.17214502     -13.80498646
C       -0.92366349      -3.70831858     -14.81525153
Br      -0.16756658      -2.95835046     -16.44876470
O       -7.68861777       6.33181562       8.02370279
C       -6.47706977       6.34919763       8.20149090
C       -5.53252036       7.29291907       7.49807065
S       -4.48025374       6.42194598       6.29640864
C       -5.78230007       5.81666376       5.16140625
C       -5.18773186       5.09491701       3.95674332
O       -5.64876568       5.29165663       2.83367999
N       -4.19273105       4.19179142       4.28230549
C       -3.41817094       3.40631676       3.40629771
C       -3.51576745       3.46841610       2.01397053
C       -2.70357398       2.66336097       1.20623022
C       -1.79125331       1.79125331       1.79125331
C       -1.67829658       1.71959303       3.17699617
C       -2.48895965       2.52928875       3.98073964
O       -5.80385330       5.52036651       9.04762009
C       -6.60440205       4.48940575       9.62814744
C       -6.87384812       3.34269375       8.65327621
O       -6.36542790       3.30312894       7.53193377
C       -7.75705093       2.22147170       9.10149991
C       -8.06203466       1.20383394       8.18394574
C       -8.86111110       0.12113885       8.56377978
C       -9.35888336       0.05277755       9.86263536
C       -9.06873099       1.05903945      10.78216528
C       -8.26944639       2.14357400      10.40310788
H       -4.90759405       7.79198596       8.24557244
H       -6.10965606       8.07100597       6.98818935
H       -6.35087069       6.67929641       4.79831646
H       -6.45978585       5.12741540       5.67230573
H       -3.98286281       4.11754472       5.27106358
H       -4.20894509       4.14119432       1.52009349
H       -2.79587900       2.73199502       0.12592283
H       -0.96723544       1.04246069       3.64186222
H       -2.38561768       2.45926743       5.06028103
H       -7.54388270       4.90614077      10.00785101
H       -6.03226457       4.09054637      10.47198225
H       -7.67625059       1.24513937       7.16586342
H       -9.08433572      -0.65959989       7.84078547
H       -9.45747136       1.00697656      11.79673525
H       -8.06221371       2.90335469      11.15047370
C      -10.17358067      -1.06588305      10.26071419
C      -10.85588968      -2.00276129      10.59410521
Br     -11.95912563      -3.51761418      11.13317029
O        8.37889474      -6.75762123       6.90762021
C        7.76938000      -5.83118127       7.42719703
C        6.37705974      -5.94904645       7.99740389
S        5.15671202      -5.05567285       6.98622350
C        5.32084209      -6.00779612       5.43173187
C        4.32590698      -5.53747197       4.37601323
O        3.72566206      -6.36096850       3.68747174
N        4.25797942      -4.16262923       4.24621930
C        3.41347167      -3.41491694       3.40239680
C        2.44262550      -3.98228948       2.57323911
C        1.63130683      -3.17294461       1.76891372
C        1.79125331      -1.79125331       1.79125331
C        2.75118943      -1.20913412       2.61456223
C        3.55715497      -2.02149365       3.42033943
O        8.24894767      -4.56291465       7.55997759
C        9.49385494      -4.32841534       6.89968496
C        9.32813265      -4.15171450       5.38997093
O        8.22077736      -4.12891754       4.85079571
C       10.55686851      -3.96617373       4.55698031
C       10.41163329      -3.87439519       3.16378586
C       11.52721137      -3.67371315       2.34510521
C       12.79240298      -3.56499534       2.91689794
C       12.95179044      -3.65999525       4.29815003
C       11.83604303      -3.86138271       5.11870253
H        6.37650764      -5.55134319       9.01730162
H        6.09988768      -7.00610617       8.06285754
H        5.11703389      -7.06137620       5.65007347
H        6.32818405      -5.91368510       5.01763784
H        4.87236071      -3.63957805       4.85953235
H        2.28195279      -5.05451447       2.53376563
H        0.88131036      -3.63755678       1.13492971
H        2.88145079      -0.13087626       2.63923130
H        4.30037900      -1.54829367       4.05649347
H       10.19986976      -5.13633367       7.12167106
H        9.89112004      -3.39420630       7.30946685
H        9.42663780      -3.95536524       2.70525035
H       11.39547459      -3.60177644       1.26827025
H       13.93957423      -3.57582099       4.74578794
H       12.00202944      -3.92420331       6.18980936
C       13.94251272      -3.34787259       2.07802651
C       14.90572964      -3.16603228       1.37547168
Br      16.46316992      -2.87201188       0.23949995
C       -0.00445707       0.01189536      -1.78238275
H       -0.66409135       0.67374010      -2.43557963
H        0.65740317      -0.63156657      -2.45157240
C       -0.90989263      -0.90692880      -0.91072765
C        0.90977584       0.90977584      -0.90977584
C       -0.00465871       1.77757030       0.00794375
H       -0.66225468       2.44313916      -0.64384735
H        0.64322798       2.43503045       0.67728295
C       -1.78241447       0.00034974      -0.00472694
H       -2.45427497      -0.65498947       0.64260836
H       -2.43311707       0.67328779      -0.65473579
C       -0.91132561       0.90220522       0.91563759
C       -0.01476271      -0.02253852       1.78660255
H       -0.67934791      -0.69751639       2.42135241
H        0.63392994       0.61504881       2.47327442
C        0.01484550      -1.77751727      -0.01636693
H        0.67870853      -2.42144646      -0.68295456
H       -0.62264859      -2.45592969       0.64226336
C        1.78714474       0.01002794       0.00389507
H        2.44202412       0.67113390       0.66197326
H        2.45385902      -0.65136977      -0.64189061
C        0.91606151      -0.90478549       0.90901405
