161
Properties=species:S:1:pos:R:3 pbc="F F F"
C        0.00000000       0.00000000       0.00000000
O        6.20118935       7.42868562      -5.68454914
C        6.74005112       6.65208803      -4.90590707
C        7.11216353       5.23077691      -5.25085757
S        6.06121354       4.02839703      -4.37928572
C        4.44302616       4.48560997      -5.10202188
C        3.32923240       3.56404728      -4.61640044
O        2.48197206       3.15431248      -5.40810569
N        3.34720054       3.33730273      -3.25261261
C        2.49249053       2.50499553      -2.50358727
C        1.48842308       1.71333475      -3.06668418
C        0.68377474       0.90148055      -2.25819780
C        0.88134928       0.88134928      -0.88134928
C        1.87992592       1.66104461      -0.30420319
C        2.68498730       2.46784232      -1.11644636
O        7.07426379       6.94893101      -3.61893303
C        6.60777765       8.22029086      -3.16417465
C        5.11873565       8.20420990      -2.81716045
O        4.44946330       7.17056977      -2.85074546
C        4.47449626       9.48524944      -2.39056476
C        3.09334388       9.48703668      -2.13972171
C        2.45055608      10.65302641      -1.71273516
C        3.18677342      11.82187324      -1.53593752
Br       2.32550155      13.39653871      -0.94602320
C        4.55758924      11.83578421      -1.78685020
C        5.20212107      10.66950672      -2.21478842
H        8.16193307       5.06517493      -4.98833238
H        7.02272469       5.08433577      -6.33207885
H        4.51396055       4.39384916      -6.19096178
H        4.17326857       5.51298024      -4.84354611
H        4.08835036       3.80753193      -2.74587674
H        1.30864726       1.69542299      -4.13645057
H       -0.08838133       0.29250812      -2.71995799
H        2.04193202       1.64988332       0.76996907
H        3.45938806       3.06880713      -0.64725887
H        6.82531269       8.99362487      -3.90922485
H        7.16700567       8.44726495      -2.25081050
H        2.50740404       8.57808641      -2.27205086
H        1.38067002      10.63508205      -1.52005715
H        5.13350284      12.74830067      -1.64966758
H        6.27173051      10.72069277      -2.39390675
O       -6.19615573      -5.68810323      -7.43016514
C       -5.07323803      -6.08279647      -7.14201173
C       -4.75596225      -6.91450438      -5.92333137
S       -3.80866885      -5.96974356      -4.69048388
C       -5.04597323      -4.67629808      -4.30838670
C       -4.56316820      -3.74515340      -3.20135851
O       -5.33847470      -3.39121029      -2.31470524
N       -3.25925337      -3.31470961      -3.36315290
C       -2.50701566      -2.49333149      -2.50072618
C       -2.97804409      -2.01490508      -1.27549283
C       -2.16730345      -1.21072030      -0.46542934
C       -0.88134928      -0.88134928      -0.88134928
C       -0.39480322      -1.35280615      -2.09756434
C       -1.20690745      -2.16007656      -2.90229196
O       -3.94914380      -5.82549151      -7.86749252
C       -4.13768040      -4.90824018      -8.94632259
C       -4.21249003      -3.45703475      -8.47058123
O       -4.03430478      -3.14387710      -7.29259665
C       -4.47626011      -2.38931936      -9.48473099
C       -4.61512915      -1.06523234      -9.03974077
C       -4.83549844      -0.02879508      -9.95202412
C       -4.91870079      -0.31307279     -11.31281061
Br      -5.20270149       1.08548597     -12.55084794
C       -4.78842329      -1.62386483     -11.76793552
C       -4.56833846      -2.66228432     -10.85579343
H       -4.18571649      -7.79582599      -6.23389789
H       -5.68841682      -7.27419575      -5.47652674
H       -5.96358680      -5.16742185      -3.96776284
H       -5.26737706      -4.07102717      -5.19139068
H       -2.78807545      -3.66396393      -4.18971965
H       -3.97162246      -2.25619940      -0.91269896
H       -2.55506858      -0.85349307       0.48447688
H        0.60883037      -1.10165898      -2.42901766
H       -0.80896684      -2.51864603      -3.84784119
H       -5.03136925      -5.17587737      -9.52091579
H       -3.26162275      -5.00829048      -9.59516789
H       -4.54934747      -0.83029258      -7.97790125
H       -4.93735704       0.99121856      -9.58967074
H       -4.85382905      -1.84713730     -12.83050474
H       -4.46680034      -3.66831668     -11.25121300
O       -6.85205541       5.41013679       7.05223190
C       -5.65008488       5.36544892       7.28251243
C       -4.63523010       6.29516015       6.66340776
S       -3.56846627       5.43025560       5.47017443
C       -4.84304199       4.93337077       4.25424524
C       -4.22654547       4.23808330       3.04505134
O       -4.62781048       4.50339643       1.91318331
N       -3.28688921       3.27804054       3.37218614
C       -2.50824315       2.49694579       2.49588439
C       -2.54046862       2.62313012       1.10484327
C       -1.72816837       1.81786987       0.29741485
C       -0.88134928       0.88134928       0.88134928
C       -0.83390845       0.74521574       2.26604951
C       -1.64430241       1.55521064       3.06976293
O       -5.05177182       4.47163806       8.11871795
C       -5.92113483       3.45367087       8.61743746
C       -6.19555914       2.36315973       7.58138713
O       -5.63947432       2.34902363       6.48228058
C       -7.14535433       1.26450141       7.94045473
C       -7.45227525       0.30194794       6.96587908
C       -8.31338068      -0.75909666       7.26203363
C       -8.87144547      -0.86078321       8.53392192
Br     -10.02476983      -2.30007362       8.94336726
C       -8.57990473       0.09099742       9.50932150
C       -7.71854738       1.15383520       9.21403363
H       -4.02363083       6.73308646       7.45872308
H       -5.15492560       7.11956365       6.16465006
H       -5.35714718       5.83546495       3.90615936
H       -5.57177159       4.25392173       4.70410159
H       -3.12501106       3.15203127       4.36471671
H       -3.18122506       3.34695102       0.61234474
H       -1.76884122       1.93693238      -0.78168882
H       -0.17418759       0.01749268       2.73016601
H       -1.59263917       1.43430089       4.14851401
H       -6.85794241       3.89546780       8.97475220
H       -5.40512813       2.99363759       9.46631540
H       -7.01975114       0.36959532       5.96819485
H       -8.53725744      -1.49723941       6.49579120
H       -9.01568393       0.01289702      10.50289015
H       -7.51262640       1.87073129      10.00297234
O        7.22577435      -6.62513330       5.46351645
C        7.28883247      -5.40969645       5.59951731
C        6.42401355      -4.61912573       6.55065872
S        5.20821201      -3.59621773       5.66446656
C        4.25348041      -4.92801609       4.84916151
C        3.06435631      -4.37324028       4.07208352
O        1.97607077      -4.94368084       4.12463863
N        3.37177668      -3.27517387       3.29016533
C        2.49748835      -2.50817534       2.49540965
C        1.11987206      -2.72834890       2.42022106
C        0.31149375      -1.91643835       1.61552098
C        0.88134928      -0.88134928       0.88134928
C        2.25182241      -0.64560966       0.94774164
C        3.05570199      -1.45676792       1.75680607
O        8.13616280      -4.59377199       4.91219304
C        8.87312822      -5.24379992       3.87531502
C        8.02766222      -5.48759798       2.62484580
O        6.87153358      -5.07424174       2.52500322
C        8.64862004      -6.22247201       1.47921842
C        7.85239881      -6.50860439       0.35909907
C        8.39448268      -7.16934753      -0.74751256
C        9.73486244      -7.54717991      -0.73745816
Br      10.47570163      -8.42802719      -2.23566536
C       10.53537422      -7.27454506       0.37030437
C        9.99388629      -6.61369963       1.47883029
H        7.06578233      -3.98204982       7.16760823
H        5.90570295      -5.30663641       7.22679996
H        3.87287493      -5.60243572       5.62346085
H        4.88113812      -5.49338080       4.15527599
H        4.33965625      -2.97657925       3.32552354
H        0.63704970      -3.51991410       2.98355703
H       -0.75759613      -2.10560893       1.57607198
H        2.70457841       0.16164991       0.37891777
H        4.12313001      -1.25658378       1.79574027
H        9.30138882      -6.18229929       4.24447430
H        9.69119507      -4.56805363       3.60583241
H        6.80321059      -6.21566469       0.33866603
H        7.76373193      -7.37980221      -1.60772493
H       11.58225934      -7.56972126       0.37949049
H       10.65206385      -6.41511742       2.31914877
