166
Properties=species:S:1:pos:R:3 pbc="F F F"
C        0.73261944      10.01871119      -8.56046311
C        1.29573332       9.03281033      -7.53949851
C        1.62980699       7.62432504      -8.09358254
C        0.40425346       6.95009680      -8.73875084
C        2.69028218       7.73595940      -9.12864743
C        3.54583116       7.82057315      -9.97095022
N        2.18263494       6.77429485      -7.03261655
C        1.48527081       6.32498316      -5.94283144
O        0.32417096       6.64827068      -5.70749435
C        2.20315929       5.34988704      -5.06394165
C        1.43691828       4.64504070      -4.21315005
C        2.00794358       3.60311085      -3.37603207
C        1.20796598       2.80826615      -2.55125794
C        1.79195927       1.79195927      -1.79195927
C        3.16774056       1.56514712      -1.83758110
C        3.96713079       2.36282118      -2.65656438
C        3.38009258       3.37176728      -3.42400003
O        4.18791752       4.15043617      -4.27696803
C        3.65893142       5.10781825      -5.13742579
O        4.37993761       5.71581345      -5.92338920
H        0.54453472      10.98394845      -8.07883454
H       -0.21677809       9.66920441      -8.97589998
H        1.43086807      10.19207246      -9.38445595
H        0.56920822       8.95371122      -6.72207312
H        2.19863102       9.47535082      -7.09654454
H       -0.45886467       6.94007649      -8.06529222
H        0.62310454       5.90808318      -9.00433844
H        0.09567768       7.45659649      -9.66027710
H        4.29975319       7.89703570     -10.71780855
H        3.16986331       6.52951319      -7.10998863
H        0.36288774       4.80522161      -4.15468434
H        0.13244435       2.96830957      -2.50814328
H        3.61059509       0.76913470      -1.24432246
C        5.38454138       2.11199423      -2.69697568
C        6.57162274       1.90192666      -2.73082014
Br       8.49103291       1.56226517      -2.78554377
C      -11.07845482      -1.15299457      -7.08034434
C       -9.66564407      -1.54676344      -6.65563465
C       -9.57620954      -2.40407322      -5.36743181
C      -10.22851278      -1.70472322      -4.15986510
C      -10.27557507      -3.69768740      -5.58162654
C      -10.84437215      -4.74530040      -5.74768198
N       -8.17851266      -2.73965480      -5.07137888
C       -7.21689531      -1.83907118      -4.69711892
O       -7.41702130      -0.62911607      -4.63379863
C       -5.89611843      -2.41983631      -4.30103325
C       -5.07577582      -1.60778067      -3.61155255
C       -3.80620202      -2.08850502      -3.09237945
C       -2.98576859      -1.27837698      -2.30334450
C       -1.79195927      -1.79195927      -1.79195927
C       -1.40092316      -3.10259681      -2.06694881
C       -2.21731072      -3.90941025      -2.85979538
C       -3.41658614      -3.39787116      -3.36140258
O       -4.25458877      -4.22923238      -4.13150057
C       -5.50426608      -3.81619286      -4.58371652
O       -6.24336263      -4.58920383      -5.18657380
H      -11.03772089      -0.56586497      -8.00373185
H      -11.56956404      -0.53704944      -6.32171282
H      -11.70258737      -2.03005346      -7.27475566
H       -9.08823726      -0.62257151      -6.53418379
H       -9.19484093      -2.08735941      -7.48832605
H       -9.83998914      -0.69146181      -4.01505309
H      -10.03985588      -2.26208064      -3.23358964
H      -11.31606935      -1.62663890      -4.26984302
H      -11.35042390      -5.66963027      -5.89454327
H       -7.90878639      -3.71698822      -5.18359052
H       -5.35448985      -0.58076941      -3.38753443
H       -3.27861090      -0.25553352      -2.07475278
H       -0.47090565      -3.49229471      -1.66085190
C       -1.80240396      -5.26173427      -3.12937305
C       -1.45491955      -6.39430564      -3.35514435
Br      -0.89306664      -8.22557775      -3.72019745
C       -6.99826104       1.18657357      11.12695912
C       -6.24509465       1.71470897       9.90823855
C       -7.04859503       1.71633549       8.58278405
C       -7.56460588       0.31189672       8.21659850
C       -8.22322981       2.61704859       8.71461061
C       -9.17874181       3.34170719       8.81690553
N       -6.23479916       2.26371766       7.49102953
C       -5.11886054       1.66654325       6.96768163
O       -4.64223394       0.62566531       7.41203674
C       -4.52917524       2.32650697       5.76130578
C       -3.67158480       1.58322241       5.04030183
C       -3.10707014       2.08249529       3.79752106
C       -2.28218666       1.28703233       2.99827109
C       -1.79195927       1.79195927       1.79195927
C       -2.10664806       3.08635647       1.37746426
C       -2.92537522       3.88258256       2.17855857
C       -3.42408188       3.37223004       3.37954797
O       -4.28014939       4.16842246       4.16674987
C       -4.88702060       3.69211588       5.32503898
O       -5.68784693       4.38414079       5.94715254
H       -6.35538555       1.24017780      12.01175435
H       -7.29053040       0.14072124      10.99707466
H       -7.89584212       1.77597665      11.33557772
H       -5.33523888       1.11304122       9.79671245
H       -5.90438869       2.73532355      10.13081414
H       -6.76134106      -0.43200189       8.21716487
H       -8.01357594       0.30666259       7.21528764
H       -8.33495012      -0.03633320       8.91393434
H      -10.02496426       3.97993928       8.90969390
H       -6.51610037       3.17187917       7.12138559
H       -3.40613032       0.57316212       5.34350125
H       -2.03144893       0.27324845       3.30419982
H       -1.72159186       3.46744694       0.43501346
C       -3.24567680       5.21415622       1.73367826
C       -3.51392937       6.32934916       1.36109101
Br      -3.94767110       8.13252182       0.75864893
C       10.38485350      -8.10369817       0.82324206
C        9.32408413      -7.15957930       1.38437873
C        7.93058824      -7.79541572       1.62171061
C        7.34777320      -8.41016822       0.33515967
C        8.04318850      -8.87533614       2.63636437
C        8.12895376      -9.75406678       3.45433399
N        7.00387420      -6.80446491       2.18120723
C        6.53453385      -5.70388922       1.51466234
O        6.90021773      -5.39630136       0.38341690
C        5.48427750      -4.90867193       2.22403856
C        4.77509717      -4.05518009       1.46483178
C        3.66716745      -3.29751395       2.02240509
C        2.87108189      -2.47255564       1.22385254
C        1.79195927      -1.79195927       1.79195927
C        1.50298756      -1.91636088       3.15112035
C        2.30163660      -2.73537922       3.94950053
C        3.37396269      -3.42429011       3.37760709
O        4.15493709      -4.27852874       4.18185590
C        5.17768921      -5.06555483       3.66093142
O        5.78916848      -5.85670130       4.37327048
H       11.33283912      -7.56830826       0.70617032
H       10.10157610      -8.48761278      -0.16086258
H       10.56567711      -8.95217671       1.48954266
H        9.23896204      -6.31180131       0.69422920
H        9.70100873      -6.74151553       2.32800212
H        7.34515112      -7.69598903      -0.49463611
H        6.31103255      -8.73517319       0.48932043
H        7.91332081      -9.29032904       0.00890142
H        8.20665498     -10.53292537       4.17501710
H        6.71689261      -6.94213540       3.15033712
H        4.98271138      -3.93606413       0.40401818
H        3.07939008      -2.36868733       0.16081980
H        0.65853445      -1.38402046       3.58149735
C        1.98648281      -2.85777928       5.34924919
C        1.72254152      -2.96028932       6.52153870
Br       1.29577078      -3.12603939       8.41703168
C       -0.00445707       0.01189536      -1.78238275
H       -0.66409135       0.67374010      -2.43557963
H        0.65740317      -0.63156657      -2.45157240
C       -0.90989263      -0.90692880      -0.91072765
C        0.90977584       0.90977584      -0.90977584
C       -0.00465871       1.77757030       0.00794375
H       -0.66225468       2.44313916      -0.64384735
H        0.64322798       2.43503045       0.67728295
C       -1.78241447       0.00034974      -0.00472694
H       -2.45427497      -0.65498947       0.64260836
H       -2.43311707       0.67328779      -0.65473579
C       -0.91132561       0.90220522       0.91563759
C       -0.01476271      -0.02253852       1.78660255
H       -0.67934791      -0.69751639       2.42135241
H        0.63392994       0.61504881       2.47327442
C        0.01484550      -1.77751727      -0.01636693
H        0.67870853      -2.42144646      -0.68295456
H       -0.62264859      -2.45592969       0.64226336
C        1.78714474       0.01002794       0.00389507
H        2.44202412       0.67113390       0.66197326
H        2.45385902      -0.65136977      -0.64189061
C        0.91606151      -0.90478549       0.90901405
