197
Properties=species:S:1:pos:R:3 pbc="F F F"
C        0.00000000       0.00000000       0.00000000
C        0.88209488       0.88209488      -0.88209488
C        2.04232037       1.44675588      -0.35335605
C        2.84644655       2.26403199      -1.15424070
C        2.49443918       2.50765873      -2.48780298
C        1.31880180       1.94499605      -3.00489387
C        0.51531084       1.12797567      -2.20416925
C        3.30831781       3.38437273      -3.37311983
O        2.74516473       4.07537577      -4.21853218
C        4.82422582       3.34428810      -3.26464141
C        5.49649629       4.68358405      -3.66903859
C        6.98510551       4.58958126      -3.27730572
C        5.42738098       4.85924109      -5.17087358
O        5.51925790       3.91333196      -5.94834080
O        5.34384878       6.12339925      -5.64055699
C        5.59090628       7.24072643      -4.76788916
H        6.63870879       7.16101032      -4.45628484
C        5.50323505       8.51231644      -5.60488529
C        4.61715820       8.62086366      -6.68940634
C        4.55626521       9.78976046      -7.45268893
C        5.38125698      10.86508497      -7.13731998
C        6.26975894      10.78058429      -6.06908482
C        6.33370967       9.60836462      -5.31007668
C        4.66076248       7.18449793      -3.54291462
C        3.17396967       7.31483802      -3.90495703
C        5.02748027       8.27081536      -2.51389741
C        4.86699534       5.82015203      -2.87761511
O        4.56199315       5.63794220      -1.69206552
H        2.32099476       1.27027013       0.68236118
H        3.71960334       2.72684293      -0.70348462
H        1.02499866       2.14154341      -4.03447306
H       -0.39321226       0.69716953      -2.61714530
H        5.17222521       2.51778946      -3.89751680
H        5.11860718       3.09561779      -2.24167116
H        7.52555771       5.52167036      -3.45915374
H        7.49492299       3.80375294      -3.84549932
H        7.10123086       4.36390263      -2.21094605
H        3.96815148       7.78784463      -6.95762343
H        3.86626565       9.84556010      -8.29039612
H        6.91845037      11.61758438      -5.82105385
H        7.04151877       9.56244029      -4.48414401
H        2.88325879       6.61668684      -4.69449862
H        2.93398095       8.32703446      -4.25104444
H        2.53542589       7.10907688      -3.03863942
H        6.08459842       8.20212300      -2.22931290
H        4.44022275       8.16997035      -1.59407300
H        4.84090968       9.27807014      -2.89899625
C        5.31815417      12.07074776      -7.92217364
C        5.26530558      13.08049035      -8.57948859
Br       5.17985387      14.71315871      -9.64231125
C       -0.88209488      -0.88209488      -0.88209488
C       -2.23791800      -1.01850415      -0.58601015
C       -3.04635938      -1.83406305      -1.38429681
C       -2.49949667      -2.50500143      -2.48540279
C       -1.13225897      -2.37053746      -2.76589530
C       -0.32444942      -1.55512707      -1.96787927
C       -3.31547873      -3.39747121      -3.35286043
O       -2.79799364      -4.39818187      -3.84289717
C       -4.74849018      -3.00709525      -3.67756990
C       -5.66168298      -4.23077145      -3.95666450
C       -7.11457871      -3.71759146      -4.01982233
C       -5.32541337      -4.82412315      -5.30795913
O       -4.98519208      -4.13219986      -6.26353872
O       -5.49552787      -6.15635597      -5.45592119
C       -6.22098251      -6.91052252      -4.46801685
H       -7.24755302      -6.52671680      -4.48173413
C       -6.31102525      -8.35185174      -4.95755978
C       -5.27935994      -8.94128550      -5.70678276
C       -5.38189814     -10.26033122      -6.15648525
C       -6.51879914     -11.00563892      -5.85922387
C       -7.55589700     -10.44271803      -5.12081302
C       -7.45439857      -9.12108450      -4.67666789
C       -5.59453162      -6.71828426      -3.07535914
C       -4.15967908      -7.25695446      -2.97713118
C       -6.45690715      -7.37479773      -1.98048817
C       -5.55348341      -5.21208222      -2.79919686
O       -5.46989209      -4.77946113      -1.64264765
H       -2.67110500      -0.50822158       0.27042288
H       -4.08840979      -1.95764558      -1.10387552
H       -0.69172822      -2.90115562      -3.60813130
H        0.73388255      -1.45866398      -2.19632114
H       -4.71206253      -2.33269041      -4.54277853
H       -5.17378767      -2.42931761      -2.85279085
H       -7.83936976      -4.52630107      -4.14071099
H       -7.25482148      -3.02901157      -4.86034221
H       -7.38836573      -3.18737514      -3.10033866
H       -4.38425490      -8.37262218      -5.95674246
H       -4.57206176     -10.69052204      -6.73963807
H       -8.44750405     -11.02074443      -4.88884011
H       -8.28114296      -8.69960245      -4.10735766
H       -3.52655637      -6.88209244      -3.78579545
H       -4.14001184      -8.35226574      -3.01978227
H       -3.68894793      -6.96129944      -2.03289481
H       -7.48949301      -7.00678886      -2.01975245
H       -6.07456689      -7.15181371      -0.97788549
H       -6.47764011      -8.46485175      -2.07548421
C       -6.62480556     -12.36556435      -6.32070567
C       -6.71358593     -13.50450190      -6.70719668
Br      -6.85713628     -15.34606760      -7.33211995
C       -0.88209488       0.88209488       0.88209488
C       -0.54411650       1.07752461       2.22079120
C       -1.35520943       1.87504183       3.03446799
C       -2.49926688       2.48546947       2.50516453
C       -2.83624697       2.27142488       1.16101988
C       -2.02522181       1.47434197       0.34789198
C       -3.40243738       3.32762640       3.33574659
O       -4.61035170       3.31697947       3.11174151
C       -2.80039243       4.24287711       4.38988580
C       -3.75940348       4.50867598       5.58103947
C       -2.94683291       5.22923636       6.67592322
C       -4.87090662       5.43984982       5.14673922
O       -4.68984619       6.34924343       4.34184103
O       -6.07179981       5.28869617       5.74730905
C       -6.19675577       4.47504707       6.92771903
H       -5.59236361       4.96204397       7.70159637
C       -7.64078143       4.57168553       7.40796982
C       -8.70914104       4.71151443       6.50677273
C      -10.02604991       4.80882572       6.96383898
C      -10.28875623       4.76524184       8.32966386
C       -9.24663994       4.63018611       9.24260200
C       -7.92917896       4.53889411       8.78407788
C       -5.67845023       3.05100728       6.65871751
C       -6.49631040       2.29907766       5.59837667
C       -5.64149856       2.21710687       7.95358761
C       -4.24170419       3.17985448       6.14320381
O       -3.45397392       2.22763528       6.21039167
H        0.33741586       0.60260239       2.64371718
H       -1.09288471       1.97312961       4.08391657
H       -3.73267490       2.72569658       0.74264366
H       -2.29701708       1.31680191      -0.69271642
H       -2.52315847       5.17796393       3.88640907
H       -1.87213782       3.81087752       4.77288080
H       -3.52594018       5.39240016       7.58804148
H       -2.60207435       6.21049597       6.33160493
H       -2.06578819       4.64486664       6.96542471
H       -8.52433461       4.75535668       5.43392825
H      -10.83381769       4.92257535       6.24582883
H       -9.44729736       4.59871588      10.31107536
H       -7.12986921       4.44143913       9.51679473
H       -6.62097631       2.88784363       4.68562432
H       -7.49615203       2.04588337       5.97002445
H       -6.00904076       1.35964050       5.31446093
H       -5.05900396       2.72504201       8.73198836
H       -5.17493302       1.23894504       7.79038804
H       -6.64529029       2.02683477       8.34585101
C      -11.64561467       4.86374613       8.80171478
C      -12.78198362       4.94624347       9.19705742
Br     -14.61939610       5.07963469       9.83629304
C        0.88209488      -0.88209488       0.88209488
C        0.49680834      -1.15050114       2.19512282
C        1.30719316      -1.94815771       3.00936837
C        2.49840898      -2.48575544       2.50573648
C        2.88210802      -2.19857088       1.18801283
C        2.07178681      -1.40136916       0.37429979
C        3.40195457      -3.32482380       3.33903199
O        4.61660780      -3.25327818       3.16918670
C        2.79687506      -4.31030957       4.32597070
C        3.71549420      -4.58764489       5.54597985
C        2.88997125      -5.38949646       6.57252479
C        4.88435341      -5.45095666       5.12218558
O        4.77776025      -6.33079089       4.27237952
O        6.05096041      -5.27584255       5.78100208
C        6.08991219      -4.51051160       6.99909808
H        5.47543723      -5.05627772       7.72428900
C        7.51521347      -4.56714588       7.53807742
C        8.62582355      -4.62181459       6.67979007
C        9.92525469      -4.68346841       7.18999151
C       10.12783986      -4.68912469       8.56669737
C        9.04313861      -4.63862943       9.43766000
C        7.74348355      -4.58294268       8.92572473
C        5.52111346      -3.09916228       6.76789928
C        6.34907268      -2.26730054       5.77739149
C        5.39273045      -2.32550846       8.09395413
C        4.11451623      -3.26572923       6.18451703
O        3.28340766      -2.35153509       6.25705813
H       -0.42189976      -0.73237056       2.59843291
H        1.00534545      -2.10344614       4.04113930
H        3.81458057      -2.59566088       0.79077369
H        2.38009092      -1.18672937      -0.64571772
H        2.58268613      -5.23315078       3.77169456
H        1.83511278      -3.93523382       4.68554954
H        3.43665754      -5.56812906       7.50159522
H        2.60369628      -6.36829909       6.17217989
H        1.97255852      -4.85621566       6.84730536
H        8.48862542      -4.62605074       5.59894338
H       10.76686916      -4.73119881       6.50415390
H        9.19688865      -4.64587962      10.51432032
H        6.91040884      -4.55176796       9.62592627
H        6.53804619      -2.80943025       4.84696782
H        7.32017391      -1.98873128       6.20315466
H        5.83326207      -1.33767955       5.51220057
H        4.80084481      -2.89144809       8.82374143
H        4.89077639      -1.36168618       7.95180353
H        6.36967942      -2.11048651       8.53781015
C       11.46656549      -4.75094247       9.09356762
C       12.58774820      -4.80271485       9.53482145
Br      14.40060582      -4.88642643      10.24829158
