142
Properties=species:S:1:pos:R:3 pbc="F F F"
O        5.66587514       2.01186691      -4.58079162
C        4.93209742       1.37358556      -3.83588580
C        3.75846082       1.99226101      -3.18830550
C        2.92313542       1.21295798      -2.38655700
C        1.79690027       1.79690027      -1.79690027
C        1.49646121       3.15043366      -2.01484893
O        0.37963388       3.69702010      -1.43036388
C       -0.71178650       3.73901856      -2.36324178
C       -2.01885422       4.09264031      -1.67826966
C       -3.15394249       3.31235537      -1.97388951
C       -4.40290221       3.61834374      -1.43301573
C       -4.54068041       4.70906748      -0.58401311
C       -3.43132097       5.49666440      -0.28179341
C       -2.16888423       5.21292130      -0.83214150
C       -1.01670713       6.11146057      -0.47578655
C        2.37876057       3.93330061      -2.77306391
Br       2.14710719       5.80307214      -2.99854173
C        3.49687282       3.35137284      -3.37494662
H        5.11349903       0.30790860      -3.62798313
H        3.14193598       0.16083404      -2.22037325
H       -0.81149218       2.76204346      -2.85527043
H       -0.52805936       4.48782784      -3.14186112
H       -3.07467019       2.45614562      -2.64092587
H       -5.26721783       3.00686389      -1.67776675
H       -5.51094689       4.95129873      -0.15900550
H       -3.55939624       6.34776398       0.38421911
H       -0.34339970       5.60834474       0.22455969
H       -1.36327870       7.03538702       0.00007111
H       -0.46954142       6.40874858      -1.37361479
H        4.17245476       3.95290724      -3.98155542
O       -5.99286316      -4.02437300      -2.24129751
C       -5.21991380      -3.34612355      -1.57553144
C       -3.88109180      -2.97963070      -2.07830483
C       -3.05389238      -2.16405463      -1.30470339
C       -1.79690027      -1.79690027      -1.79690027
C       -1.36957030      -2.23077263      -3.06140087
O       -0.13365589      -1.84893191      -3.52443005
C       -0.24981628      -0.72693201      -4.41372555
C        1.10585402      -0.12466439      -4.73324538
C        1.24474537       1.27489259      -4.65194035
C        2.44179594       1.90409748      -4.99435068
C        3.52409063       1.14586519      -5.42235600
C        3.40665831      -0.23982624      -5.51396892
C        2.20203942      -0.88855997      -5.18965802
C        2.13877364      -2.38514916      -5.32416447
C       -2.18742843      -3.09864392      -3.79905274
Br      -1.63827375      -3.86439729      -5.44605001
C       -3.44883832      -3.45668443      -3.31766952
H       -5.49819582      -2.97336449      -0.57783046
H       -3.38055009      -1.81433594      -0.32825723
H       -0.88962240       0.03942836      -3.95562767
H       -0.71422709      -1.02792645      -5.35947605
H        0.41042370       1.89268474      -4.32550973
H        2.52677164       2.98550893      -4.92969339
H        4.45921888       1.63066572      -5.68924193
H        4.26511033      -0.81665809      -5.85260087
H        2.15464967      -2.85755080      -4.33748422
H        2.99193737      -2.77133319      -5.89264139
H        1.23971864      -2.68418556      -5.86835502
H       -4.09460535      -4.11402774      -3.89828433
O       -5.77214294       4.42199453       2.06439620
C       -5.00165078       3.73195149       1.40796651
C       -3.77057480       3.17020347       1.99824907
C       -2.94818001       2.34913260       1.22533779
C       -1.79690027       1.79690027       1.79690027
C       -1.47176180       2.05175751       3.13822449
O       -0.33954429       1.49027018       3.67720339
C       -0.66569767       0.30485276       4.41992341
C        0.57884592      -0.47354981       4.80445149
C        0.58516453      -1.86466230       4.58212921
C        1.66763153      -2.65432788       4.97041668
C        2.76595285      -2.06798086       5.58633390
C        2.77831612      -0.69399858       5.81945154
C        1.68830515       0.11400716       5.45047657
C        1.76054663       1.58731370       5.74377292
C       -2.27568435       2.92709179       3.88234895
Br      -1.83947012       3.45824702       5.65100391
C       -3.43344819       3.46972270       3.32002139
H       -5.20301182       3.49422323       0.35215571
H       -3.19743242       2.13744434       0.18826651
H       -1.32397994      -0.33578792       3.81762969
H       -1.20005689       0.55951891       5.34205379
H       -0.26523365      -2.34992741       4.10709506
H        1.65062682      -3.72654307       4.79458270
H        3.61230980      -2.67814778       5.88981492
H        3.64711505      -0.25313997       6.30440366
H        1.93338070       2.15136556       4.82240048
H        2.57944584       1.81726018       6.43422287
H        0.84095713       1.92862517       6.22515391
H       -4.07080238       4.13345564       3.90265940
O        5.28515056      -1.92359384       5.04978928
C        4.56618426      -1.28206163       4.29332288
C        3.58005652      -1.94316521       3.41580561
C        2.74848267      -1.16760001       2.60656772
C        1.79690027      -1.79690027       1.79690027
C        1.66544245      -3.19422268       1.80207868
O        0.71720726      -3.78639574       1.00341486
C       -0.46389904      -4.09332715       1.76104572
C       -1.61380790      -4.50521663       0.86064702
C       -2.87509574      -3.92004959       1.08734853
C       -3.99236657      -4.29827435       0.34254950
C       -3.86966818      -5.26722063      -0.64515227
C       -2.63181361      -5.86180929      -0.88285883
C       -1.49933880      -5.50511173      -0.12959436
C       -0.19714162      -6.19579462      -0.42811301
C        2.54902284      -3.96137834       2.57472392
Br       2.55687248      -5.85842389       2.53342468
C        3.49140399      -3.33677794       3.39501035
H        4.61998430      -0.18358705       4.24581942
H        2.83579343      -0.08370712       2.60364271
H       -0.75993344      -3.21511526       2.35063988
H       -0.27387401      -4.91590142       2.45960219
H       -2.99985698      -3.16307108       1.85918719
H       -4.95763566      -3.83843906       0.53660942
H       -4.73640053      -5.56481059      -1.22905272
H       -2.55583979      -6.61992017      -1.65993174
H        0.47969570      -5.52008464      -0.95939500
H       -0.34896988      -7.07911241      -1.05810532
H        0.27168181      -6.54684723       0.49429291
H        4.16505503      -3.92991033       4.01195206
C       -0.00445707       0.01189536      -1.78238275
H       -0.66409135       0.67374010      -2.43557963
H        0.65740317      -0.63156657      -2.45157240
C       -0.90989263      -0.90692880      -0.91072765
C        0.90977584       0.90977584      -0.90977584
C       -0.00465871       1.77757030       0.00794375
H       -0.66225468       2.44313916      -0.64384735
H        0.64322798       2.43503045       0.67728295
C       -1.78241447       0.00034974      -0.00472694
H       -2.45427497      -0.65498947       0.64260836
H       -2.43311707       0.67328779      -0.65473579
C       -0.91132561       0.90220522       0.91563759
C       -0.01476271      -0.02253852       1.78660255
H       -0.67934791      -0.69751639       2.42135241
H        0.63392994       0.61504881       2.47327442
C        0.01484550      -1.77751727      -0.01636693
H        0.67870853      -2.42144646      -0.68295456
H       -0.62264859      -2.45592969       0.64226336
C        1.78714474       0.01002794       0.00389507
H        2.44202412       0.67113390       0.66197326
H        2.45385902      -0.65136977      -0.64189061
C        0.91606151      -0.90478549       0.90901405
