150
Properties=species:S:1:pos:R:3 pbc="F F F"
O        5.66587514       2.01186691      -4.58079162
C        4.93209742       1.37358556      -3.83588580
C        3.75846082       1.99226101      -3.18830550
C        2.92313542       1.21295798      -2.38655700
C        1.79690027       1.79690027      -1.79690027
C        1.49646121       3.15043366      -2.01484893
O        0.37963388       3.69702010      -1.43036388
C       -0.71178650       3.73901856      -2.36324178
C       -2.01885422       4.09264031      -1.67826966
C       -3.15394249       3.31235537      -1.97388951
C       -4.40290221       3.61834374      -1.43301573
C       -4.54068041       4.70906748      -0.58401311
C       -3.43132097       5.49666440      -0.28179341
C       -2.16888423       5.21292130      -0.83214150
C       -1.01670713       6.11146057      -0.47578655
C        2.37876057       3.93330061      -2.77306391
C        3.49687282       3.35137284      -3.37494662
H        5.11349903       0.30790860      -3.62798313
H        3.14193598       0.16083404      -2.22037325
H       -0.81149218       2.76204346      -2.85527043
H       -0.52805936       4.48782784      -3.14186112
H       -3.07467019       2.45614562      -2.64092587
H       -5.26721783       3.00686389      -1.67776675
H       -5.51094689       4.95129873      -0.15900550
H       -3.55939624       6.34776398       0.38421911
H       -0.34339970       5.60834474       0.22455969
H       -1.36327870       7.03538702       0.00007111
H       -0.46954142       6.40874858      -1.37361479
H        4.17245476       3.95290724      -3.98155542
C        2.20296142       5.35224922      -2.94417649
C        2.05572963       6.54061867      -3.08748328
Br       1.81766827       8.46211157      -3.31919824
O       -5.71126036      -2.03236460      -4.51490871
C       -4.97558077      -1.39425054      -3.77173747
C       -3.77957038      -2.00298184      -3.15647511
C       -2.94385621      -1.22306295      -2.35573124
C       -1.79690027      -1.79690027      -1.79690027
C       -1.47641132      -3.14067070      -2.04466178
O       -0.33961896      -3.67724268      -1.49015621
C        0.73528730      -3.68283595      -2.44292519
C        2.06064467      -4.02484621      -1.78785421
C        3.17611637      -3.21897532      -2.08944343
C        4.43992450      -3.51185543      -1.57652633
C        4.61246594      -4.61484478      -0.75002134
C        3.52296458      -5.42767643      -0.44242500
C        2.24590808      -5.15711002      -0.96497662
C        1.11655928      -6.08258811      -0.60451116
C       -2.35823174      -3.92577886      -2.80111448
C       -3.49725315      -3.35359051      -3.37234862
H       -5.17212798      -0.33590708      -3.54135571
H       -3.17830522      -0.17820329      -2.16663476
H        0.80864875      -2.69560917      -2.91886129
H        0.55083740      -4.42087173      -3.23159527
H        3.06953543      -2.35260338      -2.73933334
H        5.28863831      -2.88054885      -1.82550228
H        5.59443550      -4.84697718      -0.34681566
H        3.67822320      -6.28803701       0.20566518
H        0.44720665      -5.60430770       0.11671570
H        1.48809346      -7.00840616      -0.15172451
H        0.55858875      -6.37371382      -1.49769688
H       -4.17290317      -3.95637676      -3.97763749
C       -2.16032890      -5.33803647      -3.00102176
C       -1.99458527      -6.52080222      -3.16844410
Br      -1.72659183      -8.43323439      -3.43915187
O       -3.08096295       6.25118823       2.92638250
C       -2.38166193       5.48400321       2.27590364
C       -2.47075957       4.02043118       2.44783659
C       -1.68925721       3.18390167       1.64949152
C       -1.79690027       1.79690027       1.79690027
C       -2.68932219       1.24401001       2.72841160
O       -2.78137630      -0.12166655       2.84730811
C       -3.90562126      -0.62057417       2.10542675
C       -3.88137503      -2.13451861       2.00519933
C       -4.10757105      -2.71857455       0.74330588
C       -4.16497202      -4.10363191       0.58711716
C       -3.99482445      -4.93171712       1.68929285
C       -3.77407868      -4.37440928       2.94746743
C       -3.73082304      -2.98030947       3.12566499
C       -3.50291922      -2.44484206       4.51246283
C       -3.42206731       2.09886846       3.56418932
C       -3.32799782       3.48407536       3.41111909
H       -1.66496092       5.85646361       1.52796624
H       -1.00263727       3.60280987       0.91769612
H       -3.89927555      -0.18887568       1.09542184
H       -4.84688380      -0.33148193       2.58622772
H       -4.25017825      -2.09246584      -0.13531111
H       -4.34572314      -4.53421367      -0.39409666
H       -4.03744888      -6.01126516       1.57317361
H       -3.64444976      -5.03941781       3.79911668
H       -2.48590551      -2.05288555       4.60736539
H       -3.63075001      -3.22726336       5.26855056
H       -4.22924174      -1.66278678       4.74636698
H       -3.91183684       4.14996937       4.04511120
C       -4.26831441       1.60952434       4.62154838
C       -4.97704636       1.19969864       5.50708658
Br      -6.12300598       0.53704514       6.93892697
O        2.57164237      -6.18548243       3.50140888
C        1.89144014      -5.41279198       2.83733665
C        2.23126881      -3.98031799       2.72744054
C        1.45509210      -3.14789455       1.91966375
C        1.79690027      -1.79690027       1.79690027
C        2.91587297      -1.27873204       2.46713879
O        3.23415938       0.05001305       2.32287153
C        4.26900434       0.21983126       1.34130076
C        4.45733618       1.68032807       0.97504765
C        4.53871981       2.01557908      -0.39083834
C        4.77675291       3.32761775      -0.80067789
C        4.93556613       4.33043477       0.14726882
C        4.86287250       4.01963346       1.50389780
C        4.64117528       2.69960310       1.93460639
C        4.58799578       2.43085167       3.41339587
C        3.64861857      -2.11450665       3.32199987
C        3.31925554      -3.46706018       3.43687655
H        1.00369422      -5.75935672       2.28633983
H        0.59243227      -3.54256374       1.38814726
H        4.01545796      -0.35198025       0.43838349
H        5.22643011      -0.15754255       1.71765694
H        4.42406038       1.24796837      -1.15369071
H        4.84118602       3.56452234      -1.85925087
H        5.12005056       5.35430429      -0.16638893
H        4.99119871       4.81861758       2.23156751
H        3.55714546       2.24740975       3.73064964
H        4.96716942       3.28308588       3.98795367
H        5.21721252       1.57557567       3.67118510
H        3.89966019      -4.12302860       4.08422863
C        4.73571810      -1.63067112       4.13299790
C        5.64616395      -1.22545888       4.81220875
Br       7.11827790      -0.57026494       5.91043525
C       -0.00445707       0.01189536      -1.78238275
H       -0.66409135       0.67374010      -2.43557963
H        0.65740317      -0.63156657      -2.45157240
C       -0.90989263      -0.90692880      -0.91072765
C        0.90977584       0.90977584      -0.90977584
C       -0.00465871       1.77757030       0.00794375
H       -0.66225468       2.44313916      -0.64384735
H        0.64322798       2.43503045       0.67728295
C       -1.78241447       0.00034974      -0.00472694
H       -2.45427497      -0.65498947       0.64260836
H       -2.43311707       0.67328779      -0.65473579
C       -0.91132561       0.90220522       0.91563759
C       -0.01476271      -0.02253852       1.78660255
H       -0.67934791      -0.69751639       2.42135241
H        0.63392994       0.61504881       2.47327442
C        0.01484550      -1.77751727      -0.01636693
H        0.67870853      -2.42144646      -0.68295456
H       -0.62264859      -2.45592969       0.64226336
C        1.78714474       0.01002794       0.00389507
H        2.44202412       0.67113390       0.66197326
H        2.45385902      -0.65136977      -0.64189061
C        0.91606151      -0.90478549       0.90901405
