153
Properties=species:S:1:pos:R:3 pbc="F F F"
C        0.00000000       0.00000000       0.00000000
C        5.30397277       0.39623430      -7.64388074
C        5.65122310       1.65687863      -7.93773466
C        4.67631827       2.79115847      -8.05343267
N        4.94346454       3.85904574      -7.10679925
C        4.50566413       3.90765917      -5.80563208
S        3.53625938       2.68647900      -5.05751350
C        3.37293465       3.36871255      -3.37826447
C        2.50154498       2.49500801      -2.50420404
C        1.12709283       2.36793321      -2.76516231
C        0.32079854       1.55983972      -1.96092052
C        0.88186624       0.88186624      -0.88186624
C        2.24117743       1.00297333      -0.60105899
C        3.04885661       1.80544309      -1.41152489
N        4.94563468       4.99520987      -5.22491861
N        5.70182180       5.67282913      -6.14135460
C        5.70441304       5.00298448      -7.28433374
C        6.48288146       5.42170813      -8.45652721
C        7.75657326       5.97584477      -8.24587709
C        8.54366806       6.41829466      -9.31193076
C        8.06822469       6.30841282     -10.61565231
C        6.79715823       5.78362406     -10.83603364
Br       6.14025521       5.64450524     -12.60466906
C        5.99668648       5.36363819      -9.76847202
H        6.05312985      -0.38750256      -7.58025431
H        4.27265223       0.11288278      -7.45049628
H        6.69903822       1.88422947      -8.12394420
H        3.64104561       2.46155773      -7.90766226
H        4.71064405       3.18582820      -9.06749707
H        2.93591632       4.37301427      -3.41938912
H        4.37206383       3.46375230      -2.93750618
H        0.67798693       2.89505560      -3.60486879
H       -0.73826571       1.46749112      -2.18545295
H        2.68113162       0.47874196       0.24316099
H        4.10921563       1.88938122      -1.18113948
H        8.14112877       6.08058936      -7.23008606
H        9.52162398       6.85377444      -9.12148194
H        8.68342366       6.64793872     -11.44351819
H        4.98692459       5.02820600      -9.97601657
C       -6.80096675      -6.35852313      -0.18459793
C       -7.24300613      -6.57098873      -1.43184153
C       -7.67327610      -5.48016745      -2.36746587
N       -6.88309796      -5.44138001      -3.58483156
C       -5.67983768      -4.79745641      -3.74166129
S       -4.88617305      -3.89844283      -2.49563599
C       -3.37746386      -3.37437557      -3.36807224
C       -2.50309172      -2.50287598      -2.49478934
C       -2.92755848      -1.21923610      -2.11339377
C       -2.12298050      -0.41352065      -1.30505763
C       -0.88186624      -0.88186624      -0.88186624
C       -0.43913362      -2.14834024      -1.25773588
C       -1.24869790      -2.95718755      -2.05993915
N       -5.22654242      -4.98372399      -4.95549676
N       -6.12669101      -5.77655095      -5.61276358
C       -7.13552948      -6.05554030      -4.80066150
C       -8.24088131      -6.94706324      -5.17317225
C       -7.94821607      -8.08132763      -5.94875142
C       -8.95246847      -8.96092419      -6.36050081
C      -10.27453872      -8.72125423      -5.99649688
C      -10.58107333      -7.58706661      -5.24867598
Br     -12.37784733      -7.24891173      -4.76267046
C       -9.58081004      -6.69105117      -4.85693548
H       -6.50917731      -7.18868021       0.45197592
H       -6.70887381      -5.35869365       0.23153617
H       -7.31679764      -7.59352004      -1.79689421
H       -7.62081831      -4.49052685      -1.89892043
H       -8.72303500      -5.62235480      -2.61857952
H       -3.63962912      -2.81516318      -4.27352741
H       -2.82398649      -4.26672527      -3.68261054
H       -3.89502829      -0.84263418      -2.44024886
H       -2.47386426       0.57256462      -1.01337872
H        0.53101745      -2.51487297      -0.93285706
H       -0.89056213      -3.94475832      -2.34441588
H       -6.91925680      -8.27921682      -6.25333057
H       -8.70131071      -9.82582405      -6.96974559
H      -11.05320933      -9.40875914      -6.31291210
H       -9.86916716      -5.78399729      -4.33798272
C       -2.15037300       2.47882021       8.71489459
C       -2.96692473       3.54131007       8.73760158
C       -2.70202427       4.81987459       7.99901055
N       -3.73983576       5.13545984       7.03401393
C       -3.80898350       4.66458760       5.74538427
S       -2.64662599       3.60044519       5.03318069
C       -3.36920057       3.37214867       3.37856243
C       -2.49748535       2.49755506       2.50571662
C       -1.23803482       2.94686644       2.07528708
C       -0.43021663       2.14012876       1.27121339
C       -0.88186624       0.88186624       0.88186624
C       -2.13217327       0.42252870       1.29050777
C       -2.93641174       1.22735929       2.10205357
N       -4.88423822       5.12436163       5.15716332
N       -5.55213942       5.89620030       6.06766581
C       -4.87027278       5.91815373       7.20330476
C       -5.34917255       6.59970466       8.41223960
C       -6.72305303       6.55314658       8.70209551
C       -7.25339586       7.19868416       9.82181345
C       -6.41149304       7.90220740      10.67858938
C       -5.05129952       7.97661374      10.38890267
Br      -3.90442704       8.94276244      11.54224004
C       -4.52169599       7.35268824       9.25441246
H       -2.38972733       1.58022350       9.27593077
H       -1.23194390       2.47033273       8.13375466
H       -3.87319157       3.49568757       9.33833276
H       -1.74279765       4.79865467       7.46881327
H       -2.61340263       5.63257202       8.71799466
H       -3.49959958       4.34260652       2.88611360
H       -4.36334070       2.92321917       3.48676243
H       -0.87619226       3.92949545       2.37222362
H        0.54469505       2.50248880       0.95688461
H       -2.48940710      -0.55717317       0.98447866
H       -3.91000669       0.85486909       2.41486055
H       -7.39996628       6.01618786       8.03565005
H       -8.32207731       7.15682831      10.01797474
H       -6.82454412       8.39898938      11.55134707
H       -3.47152788       7.49405425       9.02556502
C        2.34818682      -8.71890849       2.27699250
C        3.42635889      -8.74692410       3.07255340
C        4.71371764      -8.03983042       2.76736136
N        5.06940950      -7.06099271       3.77890732
C        4.62574735      -5.76195747       3.83125056
S        3.55261638      -5.05156441       2.67607108
C        3.37196137      -3.37861845       3.36933185
C        2.49739140      -2.50571471       2.49765092
C        2.92953278      -2.10960977       1.22104580
C        2.12272022      -1.30555648       0.41328208
C        0.88186624      -0.88186624       0.88186624
C        0.43995043      -1.25617037       2.14908894
C        1.24463551      -2.06772523       2.95346385
N        5.11883909      -5.16192368       4.88500040
N        5.88581299      -6.07443648       5.55575606
C        5.87135099      -7.22361794       4.89676234
C        6.53830727      -8.43636869       5.38644084
C        6.51387229      -8.69785096       6.76657187
C        7.14764679      -9.81966767       7.30657902
C        7.81677736     -10.70710442       6.46840805
C        7.86932361     -10.44608404       5.10140828
Br       8.78889240     -11.64135219       3.95918493
C        7.25746115      -9.30992469       4.56141086
H        1.44365419      -9.25673372       2.54549369
H        2.33262707      -8.15608895       1.34731528
H        3.38719433      -9.32847124       3.99154632
H        4.68359035      -7.52848577       1.79818947
H        5.50999651      -8.77677031       2.67720250
H        4.35446240      -2.90345988       3.47039743
H        2.94122624      -3.45790588       4.37419019
H        3.89852309      -2.43355063       0.84583760
H        2.47140862      -1.01808527      -0.57481553
H       -0.52602666      -0.92329159       2.51944765
H        0.88582458      -2.35349597       3.94041577
H        6.00410883      -8.00732629       7.44036907
H        7.12358438      -9.99365576       8.37964022
H        8.30438671     -11.58137500       6.88911886
H        7.38201888      -9.10491396       3.50421431
