174
Properties=species:S:1:pos:R:3 pbc="F F F"
C        6.21387679       1.30613833      -8.55378476
C        6.56112712       2.56678265      -8.84763868
C        5.58622229       3.70106250      -8.96333670
N        5.85336856       4.76894976      -8.01670327
C        5.41556815       4.81756320      -6.71553610
S        4.44616340       3.59638302      -5.96741753
C        4.28283868       4.27861657      -4.28816849
C        3.41144900       3.40491203      -3.41410807
C        2.03699685       3.27783724      -3.67506633
C        1.23070257       2.46974374      -2.87082455
C        1.79177027       1.79177027      -1.79177027
C        3.15108145       1.91287735      -1.51096301
C        3.95876064       2.71534712      -2.32142891
N        5.85553871       5.90511390      -6.13482263
N        6.61172582       6.58273316      -7.05125863
C        6.61431707       5.91288850      -8.19423777
C        7.39278549       6.33161215      -9.36643124
C        8.66647728       6.88574880      -9.15578111
C        9.45357208       7.32819868     -10.22183478
C        8.97812871       7.21831685     -11.52555633
C        7.70706225       6.69352809     -11.74593766
Br       7.05015924       6.55440926     -13.51457309
C        6.90659050       6.27354222     -10.67837605
H        6.96303387       0.52240146      -8.49015834
H        5.18255626       1.02278681      -8.36040030
H        7.60894225       2.79413349      -9.03384822
H        4.55094963       3.37146175      -8.81756628
H        5.62054807       4.09573222      -9.97740110
H        3.84582034       5.28291829      -4.32929314
H        5.28196785       4.37365632      -3.84741020
H        1.58789095       3.80495963      -4.51477282
H        0.17163831       2.37739515      -3.09535698
H        3.59103564       1.38864599      -0.66674303
H        5.01911965       2.79928524      -2.09104351
H        9.05103279       6.99049339      -8.13999008
H       10.43152801       7.76367846     -10.03138596
H        9.59332768       7.55784275     -12.35342221
H        5.89682862       5.93811002     -10.88592059
C       -7.70345862      -7.27636092      -1.09398034
C       -8.14673987      -7.48786140      -2.34094719
C       -8.57944031      -6.39643638      -3.27474480
N       -7.79077121      -6.35524078      -4.49300961
C       -6.58847300      -5.70968560      -4.65050885
S       -5.79439164      -4.81121457      -3.40435773
C       -4.28736031      -4.28429086      -4.27797257
C       -3.41298603      -3.41278995      -3.40469312
C       -3.83853344      -2.13011878      -3.02124820
C       -3.03395231      -1.32440784      -2.21291070
C       -1.79177027      -1.79177027      -1.79177027
C       -1.34797098      -3.05726029      -2.16969055
C       -2.15752728      -3.86611642      -2.97189297
N       -6.13641221      -5.89395335      -5.86510968
N       -7.03639791      -6.68707168      -6.52224801
C       -8.04392552      -6.96824542      -5.70927240
C       -9.14865399      -7.86064736      -6.08152752
C       -8.85556023      -8.99362885      -6.85881811
C       -9.85925081      -9.87393602      -7.27041872
C      -11.18116956      -9.63628993      -6.90454241
C      -11.48816592      -8.50336857      -6.15499351
Br     -13.28475935      -8.16795385      -5.66642838
C      -10.48850813      -7.60662336      -5.76337728
H       -7.40991005      -8.10692979      -0.45875384
H       -7.61206507      -6.27692128      -0.67675702
H       -8.21974348      -8.51004212      -2.70713837
H       -8.52760672      -5.40729603      -2.80507491
H       -9.62932867      -6.53958262      -3.52477010
H       -4.55128265      -3.72430833      -5.18244079
H       -3.73319139      -5.17559772      -4.59424527
H       -4.80684579      -1.75428690      -3.34649071
H       -3.38566776      -0.33909493      -1.91962775
H       -0.37699182      -3.42301741      -1.84641543
H       -1.79854941      -4.85291476      -3.25798423
H       -7.82673079      -9.18991734      -7.16486812
H       -9.60778776     -10.73780263      -7.88100204
H      -11.95939456     -10.32434922      -7.22084886
H      -10.77732942      -6.70053917      -5.24299064
C       -3.19074493       3.25420177       9.62885317
C       -3.98567157       4.33283712       9.65703978
C       -3.67927531       5.62043792       8.95090826
N       -4.69001488       5.97733163       7.97167510
C       -4.74184123       5.53448550       6.67234073
S       -3.58688090       4.46108598       5.96199707
C       -4.27923990       4.28185979       4.28852406
C       -3.40755997       3.40729055       3.41561858
C       -2.13045515       3.83889974       3.02054552
C       -1.32269310       3.03208495       2.21649281
C       -1.79177027       1.79177027       1.79177027
C       -3.05948540       1.35039414       2.16504228
C       -3.86386446       2.15507488       2.97659732
N       -5.79493054       6.02857585       6.07196885
N       -6.46577415       6.79540376       6.98453970
C       -5.80748359       6.77984991       8.13410984
C       -6.29749186       7.44636961       9.34696741
C       -7.67779508       7.42261048       9.60760163
C       -8.21809709       8.05603369      10.72947477
C       -7.38005853       8.72412195      11.61782141
C       -6.01286986       8.77600000      11.35765814
Br      -4.87081381       9.69415687      12.55417091
C       -5.47255570       8.16449747      10.22145560
H       -3.46011699       2.34950698      10.16596970
H       -2.26073746       3.23842022       9.06658569
H       -4.90503909       4.29387663      10.23800825
H       -2.70981307       5.59003390       8.44013070
H       -3.58908093       6.41621714       9.68838333
H       -4.37942526       5.26470837       3.81389815
H       -5.28440580       3.85168395       4.36694462
H       -1.75485779       4.80746749       3.34529813
H       -0.33421169       3.38034988       1.92982886
H       -3.43022606       0.38484209       1.83135651
H       -4.85120526       1.79668776       3.26155538
H       -8.35148266       6.91367111       8.91636250
H       -9.29127752       8.03251447      10.90280045
H       -7.80100294       9.21145746      12.49213224
H       -4.41516051       8.28854030      10.01715842
C        3.39673218      -9.62438866       3.05267904
C        4.45825322      -9.64679716       3.87049808
C        5.73623757      -8.90632616       3.60805776
N        6.04938054      -7.94221253       4.64742852
C        5.57685268      -6.65424289       4.71757188
S        4.51325929      -5.94191897       3.55478569
C        4.28206411      -4.28846285       4.27909678
C        3.40746913      -3.41562055       3.40737943
C        3.85778934      -2.98310770       2.14900338
C        3.05105622      -2.17903268       1.34118195
C        1.79177027      -1.79177027       1.79177027
C        1.33140847      -2.20249620       3.04101715
C        2.13624797      -3.01404126       3.84524743
N        6.03459825      -6.06677435       5.79410263
N        6.80673274      -6.97714984       6.46183503
C        6.83090240      -8.11192851       5.77861244
C        7.51334363      -9.32061533       6.25686991
C        7.46546520      -9.61220362       7.63033837
C        8.11172162     -10.73178032       8.16010360
C        8.81731489     -11.58667067       7.31801634
C        8.89302506     -11.29523435       5.95826859
Br       9.86197678     -12.44599365       4.81117116
C        8.26836177     -10.16085997       5.42928702
H        2.49852960     -10.18681091       3.29025316
H        3.38865483      -9.04213948       2.13494905
H        4.41225939     -10.24868863       4.77597594
H        5.71553965      -8.37498531       2.64945271
H        6.54991890      -9.62421084       3.51955165
H        5.25176087      -3.79499136       4.41127956
H        3.83205595      -4.39842250       5.27255592
H        4.84122003      -3.27840506       1.78799832
H        3.41422016      -1.86307350       0.36709678
H        0.35089943      -1.89809709       3.39742814
H        1.76295364      -3.32848940       4.81800537
H        6.92686945      -8.94723922       8.30740760
H        8.06880299     -10.92929606       9.22849337
H        9.31465756     -12.45932566       7.73060943
H        8.41072799      -9.93055946       4.37957178
C       -0.00445707       0.01189536      -1.78238275
H       -0.66409135       0.67374010      -2.43557963
H        0.65740317      -0.63156657      -2.45157240
C       -0.90989263      -0.90692880      -0.91072765
C        0.90977584       0.90977584      -0.90977584
C       -0.00465871       1.77757030       0.00794375
H       -0.66225468       2.44313916      -0.64384735
H        0.64322798       2.43503045       0.67728295
C       -1.78241447       0.00034974      -0.00472694
H       -2.45427497      -0.65498947       0.64260836
H       -2.43311707       0.67328779      -0.65473579
C       -0.91132561       0.90220522       0.91563759
C       -0.01476271      -0.02253852       1.78660255
H       -0.67934791      -0.69751639       2.42135241
H        0.63392994       0.61504881       2.47327442
C        0.01484550      -1.77751727      -0.01636693
H        0.67870853      -2.42144646      -0.68295456
H       -0.62264859      -2.45592969       0.64226336
C        1.78714474       0.01002794       0.00389507
H        2.44202412       0.67113390       0.66197326
H        2.45385902      -0.65136977      -0.64189061
C        0.91606151      -0.90478549       0.90901405
