182
Properties=species:S:1:pos:R:3 pbc="F F F"
C        6.21387679       1.30613833      -8.55378476
C        6.56112712       2.56678265      -8.84763868
C        5.58622229       3.70106250      -8.96333670
N        5.85336856       4.76894976      -8.01670327
C        5.41556815       4.81756320      -6.71553610
S        4.44616340       3.59638302      -5.96741753
C        4.28283868       4.27861657      -4.28816849
C        3.41144900       3.40491203      -3.41410807
C        2.03699685       3.27783724      -3.67506633
C        1.23070257       2.46974374      -2.87082455
C        1.79177027       1.79177027      -1.79177027
C        3.15108145       1.91287735      -1.51096301
C        3.95876064       2.71534712      -2.32142891
N        5.85553871       5.90511390      -6.13482263
N        6.61172582       6.58273316      -7.05125863
C        6.61431707       5.91288850      -8.19423777
C        7.39278549       6.33161215      -9.36643124
C        8.66647728       6.88574880      -9.15578111
C        9.45357208       7.32819868     -10.22183478
C        8.97812871       7.21831685     -11.52555633
C        7.70706225       6.69352809     -11.74593766
C        6.90659050       6.27354222     -10.67837605
H        6.96303387       0.52240146      -8.49015834
H        5.18255626       1.02278681      -8.36040030
H        7.60894225       2.79413349      -9.03384822
H        4.55094963       3.37146175      -8.81756628
H        5.62054807       4.09573222      -9.97740110
H        3.84582034       5.28291829      -4.32929314
H        5.28196785       4.37365632      -3.84741020
H        1.58789095       3.80495963      -4.51477282
H        0.17163831       2.37739515      -3.09535698
H        3.59103564       1.38864599      -0.66674303
H        5.01911965       2.79928524      -2.09104351
H        9.05103279       6.99049339      -8.13999008
H       10.43152801       7.76367846     -10.03138596
H        9.59332768       7.55784275     -12.35342221
H        5.89682862       5.93811002     -10.88592059
C        7.20704370       6.58763423     -13.09217981
C        6.78827816       6.49894812     -14.21965762
Br       6.11116970       6.35555019     -16.04269387
C       -1.93166469      -9.27948032      -4.86265487
C       -3.15124898      -9.42550203      -5.39879745
C       -4.43012852      -9.15925696      -4.66123601
N       -5.23186236      -8.12202834      -5.28513089
C       -5.09393910      -6.77004176      -5.08468659
S       -3.92481770      -6.05576865      -4.02937759
C       -4.27980887      -4.28868194      -4.28113293
C       -3.40565496      -3.41508997      -3.40972417
C       -3.55943513      -3.41706260      -2.01340269
C       -2.75180658      -2.61304693      -1.20641734
C       -1.79177027      -1.79177027      -1.79177027
C       -1.63078723      -1.76860340      -3.17553119
C       -2.43398073      -2.57982947      -3.98172647
N       -5.95853918      -6.11736741      -5.81956865
N       -6.67038983      -7.04131699      -6.53401079
C       -6.24793536      -8.25632754      -6.21718044
C       -6.75633607      -9.47428870      -6.86020411
C       -7.04177082      -9.43111597      -8.23512040
C       -7.55075810     -10.54429981      -8.90854763
C       -7.77955686     -11.72867525      -8.21376978
C       -7.52397830     -11.77696443      -6.84558527
C       -7.03859798     -10.65600508      -6.16390571
H       -1.03885987      -9.49411299      -5.44262082
H       -1.78857684      -8.93556933      -3.84159720
H       -3.23609093      -9.77490417      -6.42592885
H       -4.25237539      -8.86816490      -3.61943738
H       -5.00598497     -10.08154954      -4.60614689
H       -5.33023920      -4.07773247      -4.05006011
H       -4.12108212      -4.04414254      -5.33780971
H       -4.30811684      -4.05378308      -1.54572348
H       -2.88030658      -2.63632588      -0.12775798
H       -0.88550882      -1.12524176      -3.63567409
H       -2.29598492      -2.55252620      -5.06093728
H       -6.87968185      -8.50796339      -8.79387102
H       -7.77392865     -10.48176254      -9.97090124
H       -8.17024033     -12.59458919      -8.73976312
H       -6.92071273     -10.71240556      -5.08774094
C       -7.76904344     -12.99693915      -6.12087515
C       -7.97428549     -14.01866798      -5.51393043
Br      -8.30614453     -15.67071709      -4.53255214
C       -6.35242358       8.45788372       1.26349258
C       -7.00997661       8.53694845       2.42862339
C       -7.81936752       7.41757041       3.01368355
N       -7.33207689       6.99315253       4.31379219
C       -6.32511583       6.08595406       4.53759756
S       -5.45187399       5.27127224       3.28681772
C       -4.28587533       4.28606654       4.27768187
C       -3.41123101       3.41425896       3.40497913
C       -3.96319622       2.34176566       2.68493854
C       -3.15800357       1.53676133       1.87650596
C       -1.79177027       1.79177027       1.79177027
C       -1.22411098       2.84479744       2.50601340
C       -2.03220372       3.65497707       3.30835587
N       -6.12058864       5.95135708       5.82352953
N       -6.98699955       6.79149699       6.46722107
C       -7.72965812       7.42220711       5.56957812
C       -8.71373532       8.45207973       5.92501383
C       -8.40034544       9.33999556       6.96766618
C       -9.29800668      10.32951598       7.37608289
C      -10.53050884      10.45101052       6.74048254
C      -10.86322680       9.56126437       5.72203683
C       -9.97664767       8.55330563       5.32855546
H       -5.78706921       9.30415220       0.88437226
H       -6.35071859       7.55180715       0.66321763
H       -6.97900021       9.46988935       2.98803440
H       -7.84252380       6.53916347       2.35829039
H       -8.85642075       7.73755444       3.09970620
H       -4.83319911       3.64583701       4.97899566
H       -3.66484525       4.96677026       4.87141885
H       -5.02958041       2.13246134       2.74558165
H       -3.60612083       0.71803409       1.32023552
H       -0.15736534       3.04350371       2.44555561
H       -1.57529790       4.47483095       3.85931955
H       -7.44370597       9.25256959       7.48524071
H       -9.03604373      10.99732965       8.19321905
H      -11.22494172      11.22403128       7.05561964
H      -10.30139266       7.83711459       4.58235198
C      -12.14134375       9.67669454       5.06881945
C      -13.21176669       9.77336731       4.52174990
Br     -14.94255006       9.92967901       3.63718470
C        9.58039053      -3.80322542       2.69018393
C        9.64230919      -4.49971694       3.83352232
C        9.09258267      -4.01543678       5.14260203
N        8.06744507      -4.89237269       5.67920384
C        6.73207325      -4.85778768       5.35880652
S        6.02579160      -3.73837048       4.24580187
C        4.28869689      -4.27990184       4.28102501
C        3.41552443      -3.40835715       3.40658753
C        3.17700753      -2.06637296       3.74651994
C        2.37301431      -1.25888408       2.93937246
C        1.79177027      -1.79177027       1.79177027
C        2.00855508      -3.12320635       1.44316039
C        2.82007828      -3.92824787       2.24721051
N        6.09205041      -5.80107593       6.00234890
N        7.01178708      -6.48672366       6.74720687
C        8.20773837      -5.94572699       6.56797799
C        9.43141521      -6.48967735       7.16973631
C        9.56675236      -7.88538375       7.25587108
C       10.69263675      -8.47336420       7.83760460
C       11.71093718      -7.66923202       8.34183270
C       11.57761848      -6.28411322       8.28479630
C       10.43963147      -5.69282659       7.72605071
H       10.00253224      -4.20105737       1.77200407
H        9.10276922      -2.82850417       2.63446997
H       10.13414922      -5.47047480       3.83229994
H        8.66806447      -3.00781772       5.06409547
H        9.90809452      -3.92715285       5.85843402
H        3.90367410      -4.24765447       5.30670321
H        4.23718290      -5.32172852       3.94412294
H        3.62486045      -1.64036172       4.64240123
H        2.20872608      -0.22077898       3.21488538
H        1.55255925      -3.54328054       0.55058486
H        2.98180321      -4.96594419       1.96170100
H        8.77355135      -8.53155006       6.87641485
H       10.76830841      -9.55614796       7.90213606
H       12.58777964      -8.12788719       8.78892581
H       10.34151909      -4.61392307       7.76541707
C       12.62383101      -5.44843571       8.81459102
C       13.50003400      -4.74855580       9.25829410
Br      14.91678014      -3.61690918       9.97572445
C       -0.00445707       0.01189536      -1.78238275
H       -0.66409135       0.67374010      -2.43557963
H        0.65740317      -0.63156657      -2.45157240
C       -0.90989263      -0.90692880      -0.91072765
C        0.90977584       0.90977584      -0.90977584
C       -0.00465871       1.77757030       0.00794375
H       -0.66225468       2.44313916      -0.64384735
H        0.64322798       2.43503045       0.67728295
C       -1.78241447       0.00034974      -0.00472694
H       -2.45427497      -0.65498947       0.64260836
H       -2.43311707       0.67328779      -0.65473579
C       -0.91132561       0.90220522       0.91563759
C       -0.01476271      -0.02253852       1.78660255
H       -0.67934791      -0.69751639       2.42135241
H        0.63392994       0.61504881       2.47327442
C        0.01484550      -1.77751727      -0.01636693
H        0.67870853      -2.42144646      -0.68295456
H       -0.62264859      -2.45592969       0.64226336
C        1.78714474       0.01002794       0.00389507
H        2.44202412       0.67113390       0.66197326
H        2.45385902      -0.65136977      -0.64189061
C        0.91606151      -0.90478549       0.90901405
