186
Properties=species:S:1:pos:R:3 pbc="F F F"
C        1.79126804       1.79126804      -1.79126804
C        1.85331004       1.55979357      -3.16297521
C        2.65719795       2.37237095      -3.97065566
C        3.40897409       3.41239003      -3.41182248
C        3.33726439       3.62768700      -2.02954803
C        2.52817013       2.82362072      -1.22031541
N        4.20227236       4.22818128      -4.21922107
C        5.19090143       5.10278440      -3.90707737
O        5.64120209       5.51038792      -2.86027630
C        5.50816903       5.35434450      -5.39240266
C        5.27875532       6.79117958      -5.85086285
C        5.97483122       6.85645123      -7.20671587
C        7.01124953       5.73063844      -7.21823546
C        6.92746725       5.04394175      -5.85594609
C        4.44224492       4.22162607      -5.66755440
H        4.91036838       3.26478096      -5.94795590
C        3.23503053       4.54645711      -6.65613315
C        3.33620927       4.24992302      -8.03260731
C        2.30788679       4.53754630      -8.93596330
C        1.13750089       5.12996743      -8.47832331
C        0.99068851       5.43438524      -7.13064859
C        2.02832051       5.14609784      -6.23748568
H        1.28224562       0.75261832      -3.61429930
H        2.68682152       2.16683391      -5.03716934
H        3.89619953       4.43268813      -1.55797873
H        2.48344279       3.01724400      -0.15172626
H        5.77437078       7.48754536      -5.16218147
H        4.22683284       7.08278704      -5.90470873
H        5.25232091       6.70315530      -8.01600461
H        6.43439182       7.83709686      -7.36753753
H        6.76905999       5.01932900      -8.01638918
H        8.02078107       6.10647325      -7.41320880
H        7.14585027       3.97370986      -5.92248371
H        7.65942096       5.49428869      -5.17461564
H        4.24776295       3.78975776      -8.41271782
H        2.43477168       4.29775560      -9.98845380
H        0.07973050       5.89791773      -6.76085135
H        1.89128194       5.40209627      -5.18732006
C        0.07609110       5.43160426      -9.40353922
C       -0.81283959       5.68422511     -10.17840755
Br      -2.25016534       6.09269166     -11.43130410
C       -1.79126804      -1.79126804      -1.79126804
C       -2.09681346      -3.08921802      -1.39004734
C       -2.90983644      -3.89413146      -2.19625666
C       -3.41308645      -3.41057685      -3.40952330
C       -3.09177525      -2.10390670      -3.79881748
C       -2.28707105      -1.29334433      -2.99169089
N       -4.23167582      -4.21031476      -4.20768413
C       -4.62007348      -4.07998117      -5.50070855
O       -4.45778962      -3.21873197      -6.33534473
C       -5.32778366      -5.44704140      -5.48009113
C       -6.83495078      -5.37949121      -5.70635576
C       -7.22692880      -6.82745548      -5.98361403
C       -5.95906014      -7.53694365      -6.46411965
C       -4.85156856      -6.48473585      -6.49105068
C       -4.71777679      -5.58409579      -4.02955281
H       -3.85458419      -6.26775295      -4.00076809
C       -5.70755567      -5.90720524      -2.82285989
C       -5.94696300      -7.24180995      -2.42996665
C       -6.82325389      -7.56825851      -1.38988399
C       -7.48432698      -6.55586955      -0.70559511
C       -7.27515955      -5.22708217      -1.05348061
C       -6.39970381      -4.91339358      -2.09880663
H       -1.70967367      -3.48483133      -0.45465824
H       -3.12979264      -4.90299338      -1.85803875
H       -3.47246673      -1.68632741      -4.72807226
H       -2.05983266      -0.28003778      -3.31254261
H       -7.05322462      -4.77481661      -6.59605638
H       -7.39488674      -4.94510513      -4.87433673
H       -7.59560572      -7.30622359      -5.06965152
H       -8.03225968      -6.88354333      -6.72322321
H       -5.70178091      -8.33966804      -5.76332922
H       -6.09582617      -7.99627769      -7.44835927
H       -3.87290611      -6.91385857      -6.25527916
H       -4.79199898      -6.04315782      -7.49316849
H       -5.44227575      -8.05089986      -2.95706291
H       -6.98152175      -8.61124310      -1.12821622
H       -7.78662302      -4.42643344      -0.52544312
H       -6.25936915      -3.86422635      -2.35710277
C       -8.39025177      -6.88517977       0.36419695
C       -9.14896378      -7.16097709       1.26014780
Br     -10.37573693      -7.60691802       2.70882454
C       -1.79126804       1.79126804       1.79126804
C       -1.42784093       2.03503646       3.11320144
C       -2.23375818       2.84809677       3.91836962
C       -3.40943485       3.41304398       3.41070776
C       -3.76119196       3.15340010       2.07990736
C       -2.95385106       2.34881569       1.26943952
N       -4.20692283       4.23154969       4.21120218
C       -5.47947997       4.67211275       4.04917048
O       -6.28683306       4.57187455       3.15315871
C       -5.48431697       5.32916972       5.44142950
C       -5.65381022       6.84515112       5.42183642
C       -5.97043495       7.19506116       6.87250219
C       -6.52204150       5.92132180       7.51676014
C       -6.54951520       4.85397733       6.42386256
C       -4.06263956       4.66120263       5.60758319
H       -4.09018580       3.77361306       6.25930637
C       -2.83411428       5.59328519       6.01022132
C       -2.48273267       5.77000045       7.36600648
C       -1.42478308       6.59481358       7.76179973
C       -0.68014178       7.26584265       6.79980720
C       -0.98570891       7.11744742       5.45256601
C       -2.04933880       6.29320619       5.06935903
H       -0.52224904       1.59951237       3.52740184
H       -1.92557916       3.01907983       4.94616578
H       -4.66007287       3.58304312       1.64375040
H       -3.24478269       2.17007437       0.23755600
H       -6.51205700       7.11782254       4.79421808
H       -4.78672046       7.38899733       5.03861081
H       -5.06226825       7.51216600       7.39704657
H       -6.68230871       8.02477693       6.93194058
H       -5.86120446       5.60962119       8.33395253
H       -7.51713133       6.07800949       7.94532230
H       -6.36503235       3.85249844       6.82451306
H       -7.53603379       4.84751040       5.94478110
H       -3.05724203       5.25659051       8.13640599
H       -1.19652808       6.70581140       8.81864160
H       -0.41033041       7.63728738       4.69088178
H       -2.27335501       6.20021385       4.00712942
C        0.40843238       8.11904453       7.20062245
C        1.32011324       8.83360110       7.53630522
Br       2.79422408       9.98897863       8.07907587
C        1.79126804      -1.79126804       1.79126804
C        1.97869612      -3.13203524       1.46534745
C        2.79177310      -3.93744822       2.27100324
C        3.41299787      -3.41082958       3.40935914
C        3.20960651      -2.06104858       3.72384433
C        2.40512225      -1.25067841       2.91630561
N        4.23138057      -4.21203840       4.20625574
C        4.72025667      -4.02321254       5.45729399
O        4.67729251      -3.09812832       6.23644549
C        5.33076114      -5.43617941       5.48797564
C        6.85146639      -5.46278444       5.60654692
C        7.16389001      -6.91330657       5.96080173
C        5.88915196      -7.49512156       6.57584991
C        4.86004102      -6.36609923       6.60121484
C        4.60950896      -5.62628073       4.09563570
H        3.70234075      -6.24604590       4.17471859
C        5.48528704      -6.10086526       2.85146850
C        5.60503116      -7.47275826       2.54095017
C        6.37971238      -7.93120939       1.47047462
C        7.05632058      -7.01780956       0.67166149
C        6.96301772      -5.65693096       0.93577366
C        6.18868612      -5.21088384       2.01233407
H        1.49905849      -3.56079907       0.58930568
H        2.91809795      -4.98010013       1.99262669
H        3.68386559      -1.61037375       4.59262706
H        2.27059385      -0.20424836       3.17757085
H        7.17386591      -4.81684541       6.43338630
H        7.37774120      -5.12719814       4.70938926
H        7.43229979      -7.47807825       5.06110278
H        8.01501776      -6.97750607       6.64650239
H        5.52824896      -8.32256874       5.95396048
H        6.06549439      -7.89569065       7.57927808
H        3.84016200      -6.73818742       6.46369442
H        4.90309297      -5.85476052       7.57047179
H        5.08638075      -8.20578250       3.15807527
H        6.44789008      -8.99818632       1.27490467
H        7.48777341      -4.93286045       0.31786572
H        6.13852672      -4.13928013       2.20289142
C        7.85814677      -7.48325783      -0.43017001
C        8.52967621      -7.87307076      -1.35295389
Br       9.61548251      -8.50336530      -2.84501739
C       -0.00445707       0.01189536      -1.78238275
H       -0.66409135       0.67374010      -2.43557963
H        0.65740317      -0.63156657      -2.45157240
C       -0.90989263      -0.90692880      -0.91072765
C        0.90977584       0.90977584      -0.90977584
C       -0.00465871       1.77757030       0.00794375
H       -0.66225468       2.44313916      -0.64384735
H        0.64322798       2.43503045       0.67728295
C       -1.78241447       0.00034974      -0.00472694
H       -2.45427497      -0.65498947       0.64260836
H       -2.43311707       0.67328779      -0.65473579
C       -0.91132561       0.90220522       0.91563759
C       -0.01476271      -0.02253852       1.78660255
H       -0.67934791      -0.69751639       2.42135241
H        0.63392994       0.61504881       2.47327442
C        0.01484550      -1.77751727      -0.01636693
H        0.67870853      -2.42144646      -0.68295456
H       -0.62264859      -2.45592969       0.64226336
C        1.78714474       0.01002794       0.00389507
H        2.44202412       0.67113390       0.66197326
H        2.45385902      -0.65136977      -0.64189061
C        0.91606151      -0.90478549       0.90901405
