165
Properties=species:S:1:pos:R:3 pbc="F F F"
C        0.00000000       0.00000000       0.00000000
C        0.88126968       0.88126968      -0.88126968
C        0.91006452       2.25907366      -0.67361165
C        1.70805260       3.07207013      -1.48687221
C        2.49639958       2.50461212      -2.49352386
C        2.45909956       1.11559462      -2.68911895
C        1.64750932       0.30479967      -1.89047183
C        3.36719011       3.31296183      -3.39310022
O        4.16144189       2.75381597      -4.13851820
C        3.19659882       4.80524681      -3.50812928
C        1.92937345       5.23314391      -4.23158585
C        3.73596398       5.76730061      -2.46594674
H        3.18103026       6.70028579      -2.35133932
C        4.43236307       5.32730496      -1.21713077
C        3.86304140       5.50657513       0.05358467
C        4.54089229       5.10530372       1.20837840
C        5.80627215       4.53089983       1.12410812
C        6.39505337       4.35640952      -0.12583940
C        5.70399879       4.75751917      -1.26957668
O        6.35910518       4.55950241      -2.50079278
C        5.84077824       4.94046493      -3.74479180
O        6.48189231       4.77776048      -4.77758822
C        4.50449953       5.62596894      -3.77323791
C        4.42820474       6.78418093      -4.72293772
O        4.33474707       7.92932514      -4.29204748
C        4.47249857       6.46916574      -6.19269254
H        0.31383852       2.71030666       0.11635507
H        1.69319204       4.14150100      -1.31012031
H        3.05479768       0.65451088      -3.47631946
H        1.62290387      -0.76805108      -2.06583062
H        1.84376406       6.31953482      -4.33219189
H        1.04311183       4.89092236      -3.68865257
H        1.90255372       4.79390852      -5.23407759
H        2.88283376       5.97131197       0.14099033
H        6.34008054       4.22294440       2.01985572
H        7.38572064       3.91702176      -0.20901226
H        5.49459577       6.58284325      -6.56083209
H        3.81289694       7.15914973      -6.72606085
H        4.12528051       5.45037413      -6.38215376
C        3.92249692       5.29109146       2.49549537
C        3.40459080       5.44668869       3.57345582
Br       2.56718040       5.69827624       5.31642672
C       -0.88126968      -0.88126968      -0.88126968
C       -1.28736748      -2.13299211      -0.42239024
C       -2.08606094      -2.94898105      -1.23195296
C       -2.49897670      -2.50349196      -2.49206690
C       -2.08440283      -1.23981918      -2.93959113
C       -1.27048306      -0.43216162      -2.14013613
C       -3.34882299      -3.32205754      -3.40237164
O       -3.82034425      -2.81917724      -4.41425457
C       -3.53074954      -4.80060001      -3.17862536
C       -2.29135843      -5.63171752      -3.47102725
C       -4.48239045      -5.35307018      -2.13375071
H       -4.20684498      -6.31911625      -1.70669414
C       -5.27925273      -4.49283855      -1.20470752
C       -5.03052707      -4.46216521       0.17666042
C       -5.80094273      -3.66540529       1.02853040
C       -6.84505404      -2.89382487       0.52581505
C       -7.11748243      -2.92014263      -0.83967722
C       -6.33664600      -3.71661021      -1.67783843
O       -6.66993285      -3.70305167      -3.04641585
C       -6.02860935      -4.47130889      -4.02611673
O       -6.39598361      -4.44529961      -5.19595779
C       -4.92246243      -5.38988807      -3.59135588
C       -4.94909962      -6.73772134      -4.24850242
O       -5.22553788      -7.73756173      -3.59302008
C       -4.62712452      -6.79077448      -5.71645785
H       -0.98608279      -2.48383700       0.56212968
H       -2.36897124      -3.92398524      -0.85185687
H       -2.38330752      -0.87904421      -3.92327630
H       -0.94952927       0.53873350      -2.50988765
H       -2.45714838      -6.70471794      -3.33362445
H       -1.47168578      -5.34634550      -2.80465549
H       -1.96250759      -5.46597482      -4.50205741
H       -4.23089482      -5.07321208       0.59095149
H       -7.45106923      -2.27736797       1.18526798
H       -7.93409564      -2.33008699      -1.24757204
H       -5.55377160      -6.78971989      -6.29477962
H       -4.06613524      -7.70556823      -5.92640405
H       -4.01034851      -5.93760515      -6.00985474
C       -5.51041767      -3.64646690       2.43879156
C       -5.26710293      -3.63060601       3.61988528
Br      -4.87368358      -3.60496028       5.52961393
C       -0.88126968       0.88126968       0.88126968
C       -1.55814962       1.96323085       0.32136936
C       -2.35822170       2.78063835       1.12813490
C       -2.50075625       2.50219317       2.49158614
C       -1.81522463       1.40787755       3.04071095
C       -1.00027050       0.60253664       2.23997367
C       -3.33644069       3.33191219       3.40489928
O       -3.56240643       2.94650247       4.54486716
C       -3.79948173       4.70780099       3.00269220
C       -2.69154571       5.74822615       2.95433134
C       -4.97354914       4.92860724       2.06705496
H       -4.93267880       5.83693029       1.46304628
C       -5.73802017       3.81524708       1.42353155
C       -5.69159575       3.58504055       0.03939557
C       -6.42992608       2.55059435      -0.54270282
C       -7.24197168       1.73277853       0.23831365
C       -7.31305852       1.95257028       1.61167349
C       -6.56652067       2.98590186       2.17867211
O       -6.68963059       3.15850258       3.57126719
C       -6.05358978       4.16826373       4.30418145
O       -6.23672732       4.28973643       5.51077727
C       -5.19637109       5.14998743       3.55734785
C       -5.35741841       6.57197234       4.00593263
O       -5.89345948       7.39371645       3.26894376
C       -4.83897049       6.92193198       5.37345438
H       -1.46804367       2.18038823      -0.74064178
H       -2.85620797       3.62439611       0.66420928
H       -1.90143267       1.18124794       4.10294741
H       -0.46742472      -0.23344781       2.68670651
H       -3.05684329       6.74608825       2.69255923
H       -1.94103867       5.47542978       2.20621832
H       -2.19256715       5.81117292       3.92679976
H       -5.07740379       4.22596647      -0.59021486
H       -7.82295987       0.93091365      -0.21070431
H       -7.94832290       1.32852985       2.23490193
H       -5.65749056       6.88497510       6.09580545
H       -4.41841041       7.93096712       5.34872999
H       -4.04915383       6.23066992       5.67798465
C       -6.34898970       2.33296260      -1.96385929
C       -6.28120548       2.15069601      -3.15407784
Br      -6.17160414       1.85598636      -5.07856056
C        0.88126968      -0.88126968       0.88126968
C        1.07271450      -2.22111563       0.54891970
C        1.87082626      -3.03555288       1.36061580
C        2.49752501      -2.50423157       2.49277898
C        2.29762819      -1.15282867       2.81335627
C        1.48490189      -0.34337277       2.01450615
C        3.35910700      -3.31619487       3.39795030
O        4.01711672      -2.76536227       4.27129708
C        3.33466601      -4.82174462       3.35356429
C        2.05638597      -5.44002366       3.89769357
C        4.06694772      -5.61503199       2.28723162
H        3.62538925      -6.57911295       2.02815316
C        4.82826368      -4.98385594       1.16467917
C        4.40289201      -5.08272683      -0.16958699
C        5.14101938      -4.50142275      -1.20462452
C        6.32616475      -3.82231640      -0.93541729
C        6.77325643      -3.72418441       0.37986144
C        6.02308038      -4.30542111       1.40259315
O        6.53515641      -4.17580059       2.70844336
C        5.94446050      -4.73125799       3.85031648
O        6.46504205      -4.61726947       4.95492949
C        4.69006540      -5.53877096       3.67487002
C        4.64562399      -6.79153411       4.49816528
O        4.71283580      -7.88930465       3.95397925
C        4.51829506      -6.62841498       5.98764681
H        0.60373576      -2.64181998      -0.33776562
H        1.98404674      -4.07740495       1.08336167
H        2.76531966      -0.72213292       3.69817544
H        1.33238132       0.69829390       2.28659600
H        2.07520481      -6.53419322       3.88609275
H        1.19440937      -5.12814580       3.30013159
H        1.88972120      -5.11198486       4.92883377
H        3.48897921      -5.62607143      -0.40189523
H        6.90699252      -3.37392628      -1.73774958
H        7.70056188      -3.20451258       0.60668021
H        5.50743932      -6.68302974       6.44780206
H        3.88679885      -7.42918735       6.38212131
H        4.05065254      -5.67211945       6.23503641
C        4.66928244      -4.60966101      -2.56085043
C        4.27420275      -4.70031055      -3.69668964
Br       3.63539230      -4.84688319      -5.53324557
