173
Properties=species:S:1:pos:R:3 pbc="F F F"
C        0.00000000       0.00000000       0.00000000
C        6.12676803       6.48890330       1.15959166
C        6.37510650       5.77455337      -0.15617401
O        5.17496571       5.14584093      -0.63233415
C        4.31480151       5.96524635      -1.29408256
O        4.46304075       7.16277156      -1.47102924
C        3.15217663       5.21698586      -1.84436419
C        3.39019020       4.66402863      -3.20398742
O        3.74384903       5.38825969      -4.12605825
O        3.19538448       3.28868398      -3.38153181
C        2.45688863       2.49135425      -2.47766641
C        2.16874718       1.19097069      -2.89260814
C        1.37355594       0.38061410      -2.08620954
C        0.88194949       0.88194949      -0.88194949
C        1.18328854       2.18484056      -0.47481231
C        1.98128496       3.01754729      -1.27226142
C        2.33329513       4.41170117      -0.85727512
H        2.62800532       4.50110413       0.18971920
C        1.71060756       5.66429063      -1.49098296
C        0.57453369       5.45819834      -2.48133388
C        1.52335569       6.83260471      -0.54872327
O        1.43945367       6.62347050       0.65605158
C        1.34062849       8.20868484      -1.08559695
C        0.58258310       9.11541639      -0.33140708
C        0.38708216      10.42222241      -0.78636401
C        0.96470412      10.82762210      -1.98781433
Br       0.72798089      12.60239622      -2.59173076
C        1.72214367       9.93513951      -2.74416832
C        1.90153548       8.62166350      -2.29924942
H        7.05761210       6.90851108       1.55223908
H        5.70884188       5.79803997       1.89890768
H        5.40458584       7.30264886       1.03894422
H        7.11368418       4.97981172      -0.00789027
H        6.78456200       6.45562719      -0.91159615
H        2.54336871       0.82052828      -3.84296302
H        1.13522357      -0.63034561      -2.40674049
H        0.79546637       2.56245228       0.46975881
H        0.67170163       4.55661895      -3.09034480
H        0.50860382       6.30097614      -3.17529744
H       -0.37676579       5.38802763      -1.94234502
H        0.13731521       8.80624588       0.61267627
H       -0.20736801      11.11296894      -0.19417511
H        2.18936269      10.25153028      -3.67405500
H        2.51234239       7.95408658      -2.90120627
C       -4.51028789      -7.74624919       0.80045740
C       -5.15415295      -6.88289936      -0.26878157
O       -4.21165749      -5.93958751      -0.80189579
C       -3.38287271      -6.42845402      -1.76280368
O       -3.35414742      -7.58036966      -2.16232447
C       -2.51310193      -5.36528437      -2.33514038
C       -3.12823052      -4.64722887      -3.48274685
O       -3.53840323      -5.25794199      -4.46182175
O       -3.21878770      -3.25259404      -3.39421853
C       -2.45530428      -2.48639525      -2.48420976
C       -2.49366558      -1.10250166      -2.65615877
C       -1.69873130      -0.29468738      -1.84696091
C       -0.88194949      -0.88194949      -0.88194949
C       -0.85750136      -2.26970524      -0.71573481
C       -1.64932469      -3.10116440      -1.52060458
C       -1.65598981      -4.58882321      -1.35745840
H       -1.70050081      -4.92027712      -0.31861233
C       -0.97393123      -5.54962984      -2.34232007
C       -0.12889725      -4.93652473      -3.44864393
C       -0.38920265      -6.79722961      -1.71825141
O       -0.08820608      -6.78851621      -0.53015030
C       -0.08789067      -7.98743466      -2.55958495
C        0.95981088      -8.82907739      -2.16014005
C        1.27877793      -9.96425893      -2.91018758
C        0.53811922     -10.26747402      -4.05078575
Br       0.94661188     -11.81773747      -5.05098227
C       -0.50697506      -9.43902214      -4.45545431
C       -0.81376001      -8.29224310      -3.71644530
H       -5.24819532      -8.41656750       1.25087871
H       -4.07147178      -7.12202437       1.58552197
H       -3.69978274      -8.35350344       0.38499569
H       -5.97121184      -6.30223097       0.17205665
H       -5.58996776      -7.49309744      -1.06872015
H       -3.12102316      -0.66043173      -3.42540511
H       -1.71434805       0.78388976      -1.98116015
H       -0.21743595      -2.71484379       0.04411991
H       -0.50944507      -3.98428163      -3.82493869
H       -0.06640452      -5.61155167      -4.30692121
H        0.88825007      -4.76031815      -3.08153878
H        1.53516226      -8.60167646      -1.26437062
H        2.09699320     -10.60488212      -2.59188711
H       -1.09914196      -9.68052057      -5.33528544
H       -1.64573868      -7.67567555      -4.04622102
C       -0.45613299       2.31561042       8.68433627
C       -1.07347497       3.40523531       7.82712359
O       -1.51026348       2.87821679       6.56466053
C       -2.72546544       2.26809410       6.58057087
O       -3.42938100       2.10449912       7.56296143
C       -3.14945715       1.84603080       5.21803873
C       -3.88717150       2.89941651       4.47161823
O       -4.88563859       3.42632190       4.94620647
O       -3.39230853       3.26084852       3.21244321
C       -2.49107770       2.45671392       2.47811767
C       -2.25404310       2.84033524       1.15794768
C       -1.44214913       2.04417277       0.35405768
C       -0.88194949       0.88194949       0.88194949
C       -1.12242226       0.51211371       2.20840544
C       -1.93759764       1.29903484       3.03446119
C       -2.20232569       0.93753866       4.46240706
H       -1.31478909       0.61507458       5.00952659
C       -3.54100598       0.36923833       4.95563684
C       -4.58552661       0.02322984       3.90530946
C       -3.43519564      -0.62293213       6.09242016
O       -2.38712645      -1.23682506       6.25657119
C       -4.62189417      -0.92529975       6.93831586
C       -4.71197607      -2.19925745       7.51668796
C       -5.80166654      -2.53191952       8.32592156
C       -6.79310395      -1.58407260       8.57110919
Br      -8.25284120      -2.01981803       9.68908469
C       -6.71218203      -0.31393567       8.00320515
C       -5.63218241       0.01295312       7.17731288
H       -0.06407657       2.73369169       9.61611585
H        0.35856491       1.81945270       8.14708639
H       -1.19077497       1.54345513       8.93406038
H       -0.32117377       4.17062443       7.60958795
H       -1.89877975       3.90580764       8.34719795
H       -2.71306611       3.73896536       0.75482853
H       -1.26067250       2.32986015      -0.67891420
H       -0.67579186      -0.39641727       2.60878525
H       -4.58699337       0.69089045       3.04078157
H       -5.59141060       0.06034108       4.33312571
H       -4.41276590      -0.99288011       3.53372106
H       -3.93500148      -2.94005708       7.33594043
H       -5.86139036      -3.52501358       8.76339925
H       -7.47458637       0.43504911       8.20531249
H       -5.58697953       1.01694018       6.76371554
C        0.47514535      -2.29112481       8.68980951
C        1.08668473      -3.38513056       7.83401858
O        1.52127110      -2.86317384       6.56869586
C        2.73832412      -2.25663381       6.57917249
O        3.44565009      -2.09221839       7.55897307
C        3.15950321      -1.83989079       5.21413268
C        3.89185212      -2.89768723       4.46866689
O        4.89015898      -3.42615473       4.94185326
O        3.39216299      -3.26138457       3.21205271
C        2.49114123      -2.45675277       2.47801529
C        2.24903027      -2.84358962       1.15970612
C        1.43711340      -2.04740321       0.35586298
C        0.88194949      -0.88194949       0.88194949
C        1.12747634      -0.50888962       2.20657545
C        1.94276820      -1.29577864       3.03254683
C        2.21282803      -0.93082883       4.45861456
H        1.32789013      -0.60409334       5.00740679
C        3.55465760      -0.36505962       4.94616392
C        4.59706514      -0.02529314       3.89170763
C        3.45518939       0.63079822       6.08029249
O        2.40944471       1.24829991       6.24572779
C        4.64529961       0.93213915       6.92174981
C        4.74089432       2.20753683       7.49604908
C        5.83397808       2.53935225       8.30104275
C        6.82331930       1.58928575       8.54610699
Br       8.28767399       2.02399802       9.65843190
C        6.73692707       0.31771260       7.98223703
C        5.65350156      -0.00840804       7.16053881
H        0.08462832      -2.70526206       9.62399373
H       -0.33967228      -1.79413919       8.15350727
H        1.21282191      -1.52042495       8.93504363
H        0.33146525      -4.14891593       7.62100498
H        1.91204480      -3.88661347       8.35312708
H        2.70417448      -3.74477969       0.75790583
H        1.25170777      -2.33561862      -0.67570795
H        0.68474591       0.40215612       2.60557005
H        4.59396778      -0.69552315       3.02917446
H        5.60410589      -0.06413204       4.31663947
H        4.42621936       0.99021805       3.51760555
H        3.96559050       2.95010985       7.31540416
H        5.89795951       3.53356034       8.73537687
H        7.49770014      -0.43293851       8.18430932
H        5.60407978      -1.01348133       6.75007414
