81
Properties=species:S:1:pos:R:3 pbc="F F F"
C        0.00000000       0.00000000       0.00000000
C        0.89065897       0.89065897      -0.89065897
C        0.53067899       2.24011339      -0.94002364
C        1.24997824       3.16535119      -1.70773101
C        0.75340888       4.58722358      -1.67251704
C        2.36082731       2.70750752      -2.44062876
C        2.74218995       1.33281604      -2.40297193
S        4.17792913       0.78659766      -3.37213813
C        1.99610760       0.40653700      -1.61605871
C        2.38127256      -1.05262728      -1.56055621
H       -0.33111131       2.58581036      -0.36882044
H        1.32943592       5.28502923      -2.28120193
H        0.78017961       4.96173273      -0.64297267
H       -0.28042915       4.62525649      -2.03401774
H        4.21434598      -0.50480226      -3.02884044
H        1.73201284      -1.66611806      -0.93437643
H        3.38934544      -1.16073464      -1.14631527
H        2.33581935      -1.49339316      -2.56201863
C        3.10578644       3.65468834      -3.22897159
C        3.72968970       4.44795227      -3.88920870
Br       4.73848852       5.73059295      -4.95675628
C       -0.89065897      -0.89065897      -0.89065897
C       -0.52089399      -0.95299497      -2.23692706
C       -1.23817520      -1.72337752      -3.16150772
C       -0.73244060      -1.70031331      -4.58039559
C       -2.35586571      -2.44720602      -2.70589186
C       -2.74865878      -2.39439664      -1.33492251
S       -4.20317874      -3.33866638      -0.79481980
C       -2.00575551      -1.60326912      -0.40967868
C       -2.40238446      -1.53256955       1.04575252
H        0.34647501      -0.38918709      -2.58080742
H       -1.31100809      -2.30563049      -5.27902850
H        0.29796040      -2.07219183      -4.61065357
H       -0.74679741      -0.67229117      -4.95975649
H       -4.19001711      -3.06109163       0.51272457
H       -1.76635960      -0.88884519       1.65493358
H       -2.34736349      -2.52760207       1.50003950
H       -3.41622046      -1.12980207       1.14157771
C       -3.09499992      -3.24327055      -3.65117588
C       -3.71402483      -3.90997460      -4.44285125
Br      -4.71493574      -4.98797865      -5.72292336
C       -0.89065897       0.89065897       0.89065897
C       -0.44915317       1.05532652       2.20633633
C       -1.15782261       1.83806774       3.12717008
C       -0.57150865       1.92978057       4.51186028
C       -2.34142624       2.46806791       2.69946945
C       -2.80786577       2.31008589       1.36002627
S       -4.34528930       3.13543877       0.85593686
C       -2.07244567       1.50809293       0.43816471
C       -2.54644318       1.32695355      -0.98419524
H        0.46894033       0.56375357       2.52870626
H       -1.14484592       2.54226963       5.20855153
H        0.43454936       2.36097746       4.45845692
H       -0.50197632       0.92745292       4.94941584
H       -4.38996285       2.78046354      -0.43204223
H       -1.90842126       0.68488003      -1.59303007
H       -2.57773006       2.29419199      -1.49699598
H       -3.53786469       0.86195245      -0.99537232
C       -3.07224593       3.27640830       3.64079213
C       -3.68430742       3.95339338       4.42914988
Br      -4.67395908       5.04802099       5.70385768
C        0.89065897      -0.89065897       0.89065897
C        0.47865295      -2.22057510       1.01158797
C        1.19164622      -3.14349585       1.78791837
C        0.63677268      -4.54336150       1.83301532
C        2.35014029      -2.70367549       2.45514782
C        2.78501077      -1.34899476       2.34397240
S        4.28140962      -0.82510382       3.23015148
C        2.04451069      -0.42468124       1.54951138
C        2.48584857       1.01344266       1.41679558
H       -0.41982594      -2.55241248       0.49093295
H        1.20924124      -5.23963345       2.44679238
H        0.60478343      -4.96011548       0.81998610
H       -0.38154954      -4.52296118       2.23743344
H        4.35562748       0.44861500       2.83137169
H        1.83611385       1.62793096       0.79208832
H        3.47906235       1.06194663       0.95781035
H        2.50068749       1.49599044       2.39974777
C        3.08873177      -3.64874941       3.25196518
C        3.70730213      -4.44024882       3.91929972
Br       4.70747810      -5.72003642       4.99832323
