94
Properties=species:S:1:pos:R:3 pbc="F F F"
C        1.80056299       1.80056299      -1.80056299
C        1.44058302       3.15001741      -1.84992767
C        2.15988226       4.07525522      -2.61763503
C        1.66331291       5.49712760      -2.58242107
C        3.27073134       3.61741155      -3.35053278
Br       4.26501782       4.88160048      -4.40272289
C        3.65209398       2.24272007      -3.31287595
S        5.08783315       1.69650169      -4.28204216
C        2.90601163       1.31644102      -2.52596274
C        3.29117659      -0.14272325      -2.47046023
H        0.57879271       3.49571439      -1.27872447
H        2.23933994       6.19493325      -3.19110596
H        1.69008364       5.87163676      -1.55287669
H        0.62947487       5.53516051      -2.94392176
H        5.12425001       0.40510176      -3.93874446
H        2.64191687      -0.75621403      -1.84428045
H        4.29924947      -0.25083062      -2.05621929
H        3.24572337      -0.58348914      -3.47192265
C       -1.80056299      -1.80056299      -1.80056299
C       -1.30906388      -3.08559303      -2.04587118
C       -2.01241218      -4.00316478      -2.83719556
C       -1.36847395      -5.35252965      -3.02185797
C       -3.24368053      -3.60468396      -3.39031118
Br      -4.21641013      -4.85940805      -4.47352301
C       -3.76032422      -2.29601736      -3.15134841
S       -5.34949429      -1.82365005      -3.89323266
C       -3.02837852      -1.37628571      -2.34375115
C       -3.55555625       0.01347326      -2.07683058
H       -0.35454220      -3.38563146      -1.61305791
H       -1.93554294      -6.04537828      -3.64445793
H       -1.23444960      -5.83370767      -2.04643981
H       -0.38610210      -5.23048870      -3.49196635
H       -5.48080615      -0.58878271      -3.39850738
H       -2.90525181       0.62983762      -1.45456910
H       -4.51364712      -0.04188313      -1.54910789
H       -3.67479273       0.55932450      -3.01868866
C       -1.80056299       1.80056299       1.80056299
C       -3.11674364       1.36001558       1.96376887
C       -4.03763890       2.06880000       2.74633361
C       -5.42289203       1.48356263       2.83640692
C       -3.60947862       3.25152295       3.37767410
Br      -4.86593471       4.22708552       4.45632096
C       -2.26951700       3.71697873       3.22119426
S       -1.76483637       5.25329531       4.04824532
C       -1.34760017       2.98145883       2.41935639
C        0.07530373       3.45442285       2.23979444
H       -3.43946770       0.44259979       1.47116408
H       -6.11961578       2.05697000       3.44879337
H       -5.37068421       0.47710228       3.26681060
H       -5.85967090       1.41522802       1.83365823
H       -0.47652559       5.29719206       3.69437859
H        0.68414195       2.81642858       1.59769665
H        0.58732512       3.48447857       3.20748470
H        0.08769226       4.44622105       1.77562810
C        1.80056299      -1.80056299       1.80056299
C        3.10449137      -1.33810601       1.99793071
C        4.02389033      -2.04426229       2.78461989
C        5.39543695      -1.43441199       2.91301264
C        3.60692200      -3.24711984       3.38463383
Br       4.86129331      -4.21930732       4.46874057
C        2.27958005      -3.73506408       3.19304587
S        1.78928435      -5.29668260       3.98041005
C        1.35900657      -3.00182469       2.38758412
C       -0.05065633      -3.49841495       2.17115494
H        3.41859298      -0.40519602       1.52944256
H        6.09136595      -2.00621478       3.52779842
H        5.31528324      -0.43775779       3.36155606
H        5.84996621      -1.33808782       1.92050312
H        0.50911132      -5.35837068       3.60061423
H       -0.65942673      -2.85978058       1.52962944
H       -0.58047605      -3.55723296       3.12788122
H       -0.03471348      -4.48099182       1.68787854
C       -0.00445707       0.01189536      -1.78238275
H       -0.66409135       0.67374010      -2.43557963
H        0.65740317      -0.63156657      -2.45157240
C       -0.90989263      -0.90692880      -0.91072765
C        0.90977584       0.90977584      -0.90977584
C       -0.00465871       1.77757030       0.00794375
H       -0.66225468       2.44313916      -0.64384735
H        0.64322798       2.43503045       0.67728295
C       -1.78241447       0.00034974      -0.00472694
H       -2.45427497      -0.65498947       0.64260836
H       -2.43311707       0.67328779      -0.65473579
C       -0.91132561       0.90220522       0.91563759
C       -0.01476271      -0.02253852       1.78660255
H       -0.67934791      -0.69751639       2.42135241
H        0.63392994       0.61504881       2.47327442
C        0.01484550      -1.77751727      -0.01636693
H        0.67870853      -2.42144646      -0.68295456
H       -0.62264859      -2.45592969       0.64226336
C        1.78714474       0.01002794       0.00389507
H        2.44202412       0.67113390       0.66197326
H        2.45385902      -0.65136977      -0.64189061
C        0.91606151      -0.90478549       0.90901405
