189
Properties=species:S:1:pos:R:3 pbc="F F F"
C        0.00000000       0.00000000       0.00000000
C        2.65653195      -0.58305387      -5.77237666
O        3.48767424       0.42417372      -5.19237572
C        2.95758677       1.68127604      -5.23249662
O        1.86994472       1.96348930      -5.71370002
C        3.93185310       2.67103251      -4.62479272
C        4.36484872       3.64276078      -5.69824031
O        5.53069009       3.78982894      -6.04371608
O        3.32121366       4.34371397      -6.21206868
C        3.64368698       5.17899085      -7.32547632
C        3.34741592       3.41373526      -3.39476919
H        2.64197020       4.15578638      -3.79975711
C        2.50878702       2.50748771      -2.49432954
C        3.02430781       1.35195606      -1.89233394
C        2.21731303       0.54741992      -1.08307727
C        0.88179377       0.88179377      -0.88179377
C        0.34335162       2.01486048      -1.48243176
C        1.15325828       2.82259947      -2.28312624
C        4.41068728       4.27293158      -2.62504062
H        4.82645044       4.98913363      -3.33945336
C        3.76134414       5.13382854      -1.52799555
C        5.55968381       3.47568806      -1.98763700
O        5.44141981       2.92711030      -0.89400033
C        6.86413102       3.31232894      -2.69725907
C        7.37037563       4.25620437      -3.59543102
C        8.59699703       4.03236561      -4.23299800
C        9.32647588       2.87706487      -3.95908980
Br      10.98047192       2.58235530      -4.82368947
C        8.84614691       1.94196528      -3.04678391
C        7.61778549       2.16210255      -2.41594154
H        3.06714764      -1.55833920      -5.49836575
H        2.67246337      -0.49132370      -6.86267002
H        1.63163070      -0.52311335      -5.39263390
H        4.82297581       2.10829762      -4.32119705
H        2.70549206       5.53644398      -7.76138517
H        4.18330682       4.61500265      -8.09408849
H        4.22679106       6.04085591      -6.99301176
H        4.06309390       1.06095676      -2.02968974
H        2.64430298      -0.33367657      -0.61101641
H       -0.70071588       2.27926011      -1.33777738
H        0.70939464       3.70081950      -2.74927143
H        3.35591767       4.52563343      -0.71200179
H        2.94950490       5.74379979      -1.93721401
H        4.50080638       5.81084228      -1.08602390
H        6.84386856       5.17675178      -3.82397489
H        8.97054579       4.76565840      -4.94410270
H        9.41400787       1.04397326      -2.81834333
H        7.25404768       1.42789912      -1.69833039
C       -2.83948346       0.66879348      -5.67516477
O       -3.62440961      -0.37833612      -5.10147796
C       -3.06025742      -1.61777323      -5.19332878
O       -1.97956428      -1.85432632      -5.71324343
C       -3.98787551      -2.65241300      -4.58738982
C       -4.42428926      -3.60551835      -5.67604219
O       -5.59508080      -3.77671362      -5.99244068
O       -3.37663577      -4.26082350      -6.23953704
C       -3.70765862      -5.07322829      -7.36726724
C       -3.34691695      -3.41233636      -3.39666706
H       -2.63282668      -4.12167257      -3.84301444
C       -2.50840159      -2.50789909      -2.49430358
C       -3.03870454      -1.38546883      -1.84442445
C       -2.23157391      -0.58099484      -1.03524147
C       -0.88179377      -0.88179377      -0.88179377
C       -0.32918639      -1.98114674      -1.53031074
C       -1.13888549      -2.78914897      -2.33094954
C       -4.36243885      -4.32372233      -2.62249830
H       -4.77839900      -5.03119948      -3.34543895
C       -3.65715808      -5.19607205      -1.56993810
C       -5.51448952      -3.57879136      -1.92972798
O       -5.37994759      -3.05825158      -0.82433127
C       -6.84321834      -3.43353108      -2.59696960
C       -7.34849106      -4.36592058      -3.50759938
C       -8.59907035      -4.16000249      -4.10328780
C       -9.35273057      -3.03474148      -3.77515850
Br     -11.03897275      -2.76405164      -4.58349229
C       -8.87269009      -2.11227865      -2.84992736
C       -7.62067370      -2.31425665      -2.26089924
H       -3.26943324       1.62349936      -5.36124032
H       -2.88464534       0.60761647      -6.76678083
H       -1.80263929       0.62806253      -5.32657448
H       -4.88536135      -2.12479029      -4.24231884
H       -2.77283029      -5.39060957      -7.83988135
H       -4.28528750      -4.50365693      -8.10345354
H       -4.25610815      -5.96084582      -7.04370476
H       -4.08889942      -1.12115528      -1.94368569
H       -2.66942635       0.27350143      -0.52571790
H        0.72574382      -2.21893555      -1.42312988
H       -0.68408219      -3.64044617      -2.83495720
H       -3.24549368      -4.59969702      -0.74836219
H       -2.84063455      -5.77021020      -2.01967394
H       -4.36388345      -5.90666657      -1.12712254
H       -6.80297143      -5.26383917      -3.77778463
H       -8.97226948      -4.88341702      -4.82462040
H       -9.45889219      -1.23810173      -2.57933054
H       -7.25711318      -1.59040346      -1.53276055
C       -4.84741656       4.02158733      -1.02314915
O       -4.37737989       4.48139023       0.24545356
C       -4.81774402       3.74599959       1.30761582
O       -5.55132649       2.77181805       1.22398950
C       -4.28978717       4.33875887       2.59913229
C       -5.46136195       4.82198984       3.42249801
O       -5.60249093       5.98633827       3.77540590
O       -6.31778524       3.81743523       3.74177583
C       -7.51588235       4.23111055       4.40116125
C       -3.40836242       3.34606535       3.40149260
H       -4.10634248       2.62954150       3.86162971
C       -2.49471356       2.50557598       2.51031472
C       -1.54657231       3.07322843       1.64879708
C       -0.73801268       2.26522226       0.84457528
C       -0.88179377       0.88179377       0.88179377
C       -1.82765013       0.29629262       1.71670112
C       -2.62826871       1.10440943       2.52630586
C       -2.67790802       4.00974679       4.62100467
H       -3.44985674       4.43952297       5.26565773
C       -1.96376354       2.96448605       5.49491864
C       -1.66066111       5.10344114       4.25890662
O       -0.51093910       4.83406774       3.91752361
C       -2.04764752       6.54622851       4.27984299
C       -3.03170013       7.06257244       5.12773845
C       -3.35050479       8.42559792       5.08625793
C       -2.67382295       9.27538703       4.21342057
Br      -3.11006642      11.11312247       4.16332779
C       -1.67346014       8.77865287       3.38278309
C       -1.36050386       7.41628792       3.41903781
H       -4.27468536       4.53339290      -1.80090407
H       -5.90420630       4.28010542      -1.14050203
H       -4.69625162       2.94362057      -1.13872094
H       -3.69572863       5.22200776       2.33473408
H       -8.19577407       3.37396690       4.43358025
H       -8.00940842       5.03655737       3.84643216
H       -7.29413026       4.54182618       5.42470228
H       -1.40905665       4.15059564       1.59408811
H        0.00384174       2.72721345       0.19827111
H       -1.95286297      -0.78276221       1.74622084
H       -3.36703009       0.62549011       3.16696536
H       -1.11898458       2.49958959       4.97497872
H       -2.65451036       2.17295133       5.80305700
H       -1.56363668       3.43318785       6.40084803
H       -3.57021244       6.44003335       5.83434944
H       -4.13146630       8.81112915       5.73771144
H       -1.13253567       9.43626977       2.70751902
H       -0.57125468       7.03871328       2.77030923
C        3.68148821      -5.12299866      -0.95863212
O        3.43228877      -5.22746610       0.44446881
C        4.22559032      -4.42913198       1.21663714
O        5.08617805      -3.67600213       0.78495385
C        3.90192049      -4.64375702       2.68200082
C        5.12046855      -5.21950485       3.36587640
O        5.12321767      -6.30187697       3.93914046
O        6.19450406      -4.39164796       3.29084428
C        7.41432303      -4.93652741       3.79730371
C        3.41813778      -3.34996219       3.38782041
H        4.31972585      -2.73678723       3.54100060
C        2.49623768      -2.50228038       2.51208620
C        1.29219389      -2.98974340       1.98666052
C        0.48450609      -2.18092580       1.18237833
C        0.88179377      -0.88179377       0.88179377
C        2.08092688      -0.38156218       1.37815480
C        2.88219784      -1.18772796       2.18905820
C        2.87155899      -3.60018084       4.83691966
H        3.67712372      -4.06762834       5.41028538
C        2.57353057      -2.28055450       5.56908315
C        1.61774924      -4.48511492       4.92014470
O        0.48932058      -4.03148481       4.74172505
C        1.73091362      -5.94949395       5.19331145
C        2.76939751      -6.51045690       5.94215661
C        2.81777572      -7.89451937       6.15006556
C        1.81986513      -8.71502735       5.62773807
Br       1.89253432     -10.58150283       5.91247953
C        0.76607127      -8.16604964       4.90277519
C        0.72200138      -6.78487975       4.68894845
H        2.86581070      -5.62592610      -1.48456261
H        4.62007926      -5.62872572      -1.20499529
H        3.70664051      -4.07797707      -1.28346634
H        3.11342816      -5.40430927       2.73473304
H        8.22825737      -4.26234575       3.51271809
H        7.61622017      -5.91910939       3.35706840
H        7.37499755      -4.99841340       4.88724778
H        0.95257577      -4.00041000       2.20075462
H       -0.45458949      -2.57437105       0.80186125
H        2.40342552       0.62890282       1.14179890
H        3.82014134      -0.77840635       2.56093788
H        1.73256687      -1.74050257       5.12048345
H        3.44774596      -1.62154513       5.56122760
H        2.30835617      -2.47508704       6.61422935
H        3.55647679      -5.90675638       6.38136205
H        3.64153075      -8.32038843       6.71838772
H       -0.02266230      -8.79710199       4.50188477
H       -0.11052327      -6.36427628       4.12652419
