145
Properties=species:S:1:pos:R:3 pbc="F F F"
C        0.00000000       0.00000000       0.00000000
C        0.90995403       0.90995403      -0.90995403
C        2.35320721       0.56849334      -0.60555892
O        2.92607347      -0.32804640      -1.21863394
N        2.90029009       1.34998810       0.40072956
C        4.22695614       1.28122308       0.89444076
C        5.24980906       0.68419245       0.14635335
C        6.52951777       0.54277110       0.67483431
O        7.47354897      -0.02026879      -0.14308939
C        8.79309608       0.12495270       0.39432958
C        8.79457046      -0.20745072       1.87747044
O        7.99870790       0.74317870       2.60001210
C        6.78943446       0.94235804       1.98503891
C        5.80525174       1.59116328       2.72578126
C        4.53812911       1.82431570       2.16749356
C        3.51084368       2.59676314       2.93218295
O        2.31825163       2.41476581       2.68857559
C        3.85684333       3.62958033       3.95489586
C        5.00528914       4.42669896       3.86587437
C        5.26694189       5.39286530       4.84246519
C        4.36666467       5.58607341       5.89048812
Br       4.71874423       6.90207447       7.19980464
C        3.20335293       4.82389428       5.96918540
C        2.94763026       3.84784618       5.00248189
H        0.68012127       1.95283674      -0.69275306
H        0.68618080       0.68707151      -1.95288122
H        2.23760063       1.82250820       1.02325771
H        5.07900599       0.32800860      -0.86628624
H        9.45073884      -0.55683933      -0.15169922
H        9.13396785       1.15150057       0.21156968
H        9.81257237      -0.16168606       2.27695370
H        8.39689838      -1.21218757       2.06361715
H        6.04119274       1.88863635       3.74386780
H        5.70202445       4.32670437       3.03844972
H        6.16907942       5.99770784       4.77220495
H        2.48837860       4.98297115       6.77197203
H        2.03233518       3.26420370       5.06340378
C       -0.90995403      -0.90995403      -0.90995403
C       -0.04955356      -1.44069554      -2.03701038
O        0.57686658      -2.48854424      -1.90498335
N       -0.05858413      -0.62946554      -3.16149897
C        0.62995061      -0.86631901      -4.37737006
C        1.07964768      -2.14824552      -4.71905031
C        1.83069979      -2.35597016      -5.87218418
O        2.19559829      -3.64841621      -6.14355165
C        2.72519070      -3.78136021      -7.46754969
C        3.70050435      -2.65233137      -7.75782227
O        3.01382816      -1.39232942      -7.76337325
C        2.19528050      -1.27216273      -6.66987136
C        1.71081817       0.00100308      -6.38245502
C        0.87344369       0.20565238      -5.27404732
C        0.28480874       1.55615652      -5.01638913
O       -0.03760725       1.86178046      -3.86861506
C        0.01471972       2.55134978      -6.09759730
C       -0.34294390       2.17564840      -7.39881823
C       -0.60487197       3.15233903      -8.36480907
C       -0.54151315       4.50376747      -8.02450428
Br      -0.90942448       5.81882344      -9.33041301
C       -0.22215279       4.88841989      -6.72432892
C        0.05441208       3.91416052      -5.76156716
H       -1.74125064      -0.30806503      -1.27639540
H       -1.28415399      -1.73609980      -0.30587973
H       -0.35600150       0.34112725      -3.02197686
H        0.84616523      -3.01432071      -4.10514536
H        3.23066143      -4.74904905      -7.52721112
H        1.89039154      -3.78505811      -8.17923217
H        4.15688580      -2.78735188      -8.74346654
H        4.50174546      -2.61248933      -7.01034979
H        2.01512222       0.82323621      -7.02431973
H       -0.44075074       1.13109602      -7.68062438
H       -0.86830973       2.85053289      -9.37680547
H       -0.19042793       5.93890290      -6.44785269
H        0.29191588       4.22080004      -4.74585103
C       -0.90995403       0.90995403       0.90995403
C       -1.90168165       1.61585359       0.00972424
O       -2.98088939       1.09598256      -0.26021094
N       -1.44960730       2.84519317      -0.44525183
C       -2.15375210       3.74438182      -1.28439546
C       -3.54536424       3.66736539      -1.42508148
C       -4.21822522       4.49671460      -2.31748527
O       -5.58222809       4.37494590      -2.36080442
C       -6.18493361       5.44146986      -3.10268427
C       -5.41466374       5.68511739      -4.39013183
O       -4.08887927       6.14828330      -4.09528807
C       -3.50014861       5.37478348      -3.12817849
C       -2.12430713       5.51038301      -2.96405637
C       -1.44826882       4.74611138      -1.99942896
C        0.01405293       4.95482177      -1.76534496
O        0.68583974       4.03312021      -1.30283862
C        0.70612890       6.25481735      -2.01716064
C        0.07127499       7.49300777      -1.85561905
C        0.77605276       8.67881857      -2.08542380
C        2.12308157       8.63040846      -2.44507693
Br       3.07382041      10.23616605      -2.74133157
C        2.77420011       7.40567184      -2.57340992
C        2.06769083       6.21936812      -2.35868273
H       -0.26973179       1.61100517       1.44497411
H       -1.43788998       0.27092159       1.61732196
H       -0.43802105       3.00332638      -0.40449631
H       -4.13800388       2.97179142      -0.83649447
H       -7.21611004       5.15171195      -3.32222325
H       -6.20680147       6.33800541      -2.47090813
H       -5.91037603       6.45426434      -4.99070776
H       -5.34189398       4.77199726      -4.99279759
H       -1.59556631       6.20328257      -3.61288758
H       -0.96464817       7.56149495      -1.53586402
H        0.27016051       9.63568307      -1.97094024
H        3.82829548       7.36167321      -2.83400001
H        2.58466662       5.26720133      -2.44939961
C        0.90995403      -0.90995403       0.90995403
C        0.06089834      -2.06176245       1.40459868
O       -0.03058215      -3.09686789       0.75037527
N       -0.56512217      -1.80069522       2.61397558
C       -1.40609017      -2.68398709       3.33584154
C       -1.37945571      -4.06492850       3.10217537
C       -2.26950435      -4.91479945       3.75215946
O       -2.14521810      -6.25347125       3.48811642
C       -2.91858947      -7.04559182       4.39671686
C       -4.30316079      -6.44294514       4.56986495
O       -4.20926061      -5.15517615       5.19595896
C       -3.24151865      -4.38718671       4.60108553
C       -3.24916253      -3.02609196       4.89370434
C       -2.29471542      -2.17311360       4.31655306
C       -2.25046205      -0.72772250       4.69816342
O       -1.77577265       0.08782110       3.90803560
C       -2.71010528      -0.21679926       6.02483382
C       -2.60442441      -0.96824370       7.20229445
C       -3.03213648      -0.42957619       8.41990230
C       -3.53544918       0.87062093       8.46832008
Br      -4.09946120       1.59798457      10.11845983
C       -3.61152290       1.63999296       7.30957767
C       -3.19846578       1.09813599       6.08959632
H        1.29478088      -0.30228670       1.72864349
H        1.73396195      -1.28727170       0.30489988
H       -0.65566975      -0.81471037       2.87781049
H       -0.65974989      -4.51186676       2.42118396
H       -2.98912337      -8.05419939       3.98052271
H       -2.38292967      -7.10461141       5.35221701
H       -4.91875665      -7.08121507       5.21147419
H       -4.81413618      -6.32877507       3.60645477
H       -4.02088935      -2.64813270       5.55871794
H       -2.17787339      -1.96730461       7.20084789
H       -2.95896746      -1.02644385       9.32710593
H       -3.98415262       2.66025615       7.34378648
H       -3.24988076       1.70784311       5.19085897
