173
Properties=species:S:1:pos:R:3 pbc="F F F"
C        0.00000000       0.00000000       0.00000000
C        0.88143861       0.88143861      -0.88143861
C        0.65098736       2.25397397      -0.93738112
C        1.45386013       3.06420303      -1.74802124
C        2.49511945       2.50665535      -2.49930014
C        2.71921805       1.12284711      -2.42435023
C        1.91192013       0.31038219      -1.62276351
C        3.38871925       3.32936631      -3.38027093
N        4.56371843       2.85399873      -3.67406163
C        5.43842796       3.56538374      -4.51793704
C        6.12364277       2.81765020      -5.48505594
C        7.06711558       3.41181796      -6.32286342
C        7.34897068       4.76639058      -6.19080294
C        6.68614458       5.52359476      -5.22324841
C        5.72466142       4.94357176      -4.37822905
N        5.07880352       5.76051323      -3.44041020
C        3.60715698       5.88220498      -3.46236978
C        3.28803205       7.04304689      -4.44238244
C        2.86623316       4.62770848      -3.97038446
C        3.14699276       6.21785658      -2.02707284
C        2.00992856       7.00618327      -1.76708385
C        1.59477176       7.26811057      -0.45652541
C        2.30598860       6.73986009       0.61639807
Br       1.73964965       7.09275785       2.38402286
C        3.42532898       5.94725218       0.39258292
C        3.83705089       5.68600975      -0.91712382
H       -0.14435422       2.70653785      -0.35029066
H        1.25537074       4.12945884      -1.75153912
H        3.52566141       0.66693926      -2.99613584
H        2.10037587      -0.75923488      -1.58384503
H        5.92164030       1.75320963      -5.57068006
H        7.58801608       2.81301206      -7.06482207
H        8.08910561       5.23465469      -6.83419495
H        6.92474338       6.58025232      -5.13566065
H        5.53374802       6.65989142      -3.31661930
H        3.73448047       6.86375348      -5.42797674
H        3.68575637       7.99735722      -4.07642256
H        2.21111136       7.16391632      -4.60269553
H        1.78600457       4.72242695      -3.81358988
H        2.97418869       4.53635010      -5.06110523
H        1.41668567       7.42591500      -2.57528487
H        0.71445022       7.88292324      -0.28649950
H        3.98486949       5.52312910       1.22215002
H        4.70928509       5.04869114      -1.06952782
C       -0.88143861      -0.88143861      -0.88143861
C       -0.81261880      -0.76223158      -2.26749206
C       -1.62264499      -1.56512001      -3.07831940
C       -2.49838869      -2.49575747      -2.50692877
C       -2.54865957      -2.60917341      -1.10858240
C       -1.74743246      -1.80100816      -0.29662521
C       -3.38487661      -3.38443495      -3.32904492
N       -3.81087789      -4.48986621      -2.79103469
C       -4.66747565      -5.35336817      -3.50090492
C       -5.74267260      -5.89788867      -2.78578765
C       -6.60794434      -6.82043759      -3.37341503
C       -6.39627689      -7.22317557      -4.68671176
C       -5.32178131      -6.70172060      -5.40948584
C       -4.44676262      -5.76300529      -4.83669432
N       -3.39864108      -5.26109352      -5.61999234
C       -3.28883566      -3.80731400      -5.85558208
C       -4.14702448      -3.51154792      -7.11488898
C       -3.82822362      -2.92793765      -4.70816484
C       -1.79876546      -3.48805954      -6.10509719
C       -1.38550209      -2.44373442      -6.95395918
C       -0.02876399      -2.15350671      -7.13713704
C        0.93766781      -2.89854251      -6.46857592
Br       2.76807998      -2.50071207      -6.71575254
C        0.56149080      -3.92767571      -5.61381332
C       -0.79406310      -4.21461280      -5.43150856
H       -0.12849670      -0.05461976      -2.72935781
H       -1.52795659      -1.45615546      -4.15225664
H       -3.21875396      -3.32871159      -0.64127097
H       -1.80644795      -1.90235570       0.78381762
H       -5.89258832      -5.60216181      -1.75077985
H       -7.43435022      -7.23133981      -2.80016017
H       -7.06113786      -7.94813709      -5.14868030
H       -5.17355251      -7.03331289      -6.43379095
H       -3.24448043      -5.79735046      -6.46842785
H       -5.17714610      -3.86465333      -6.98441125
H       -3.74328060      -4.01408728      -8.00216827
H       -4.20754955      -2.43928463      -7.33088903
H       -3.57540534      -1.87453204      -4.87208401
H       -4.92792578      -2.94396677      -4.69975148
H       -2.10703455      -1.82719846      -7.48365253
H        0.26047228      -1.34295993      -7.80138531
H        1.30671619      -4.51199899      -5.08056576
H       -1.06684431      -5.01660522      -4.74405452
C       -0.88143861       0.88143861       0.88143861
C       -2.00073951       1.50567635       0.33592657
C       -2.80810655       2.31820873       1.13976913
C       -2.50427457       2.50315478       2.49364558
C       -1.37758010       1.85947138       3.02936392
C       -0.56418378       1.05531700       2.22556505
C       -3.33817478       3.35898985       3.40119185
N       -3.27798661       3.13272131       4.68107087
C       -4.01560883       3.91887792       5.58726199
C       -3.35254575       4.31832231       6.75548085
C       -4.01329074       5.03709099       7.75141523
C       -5.35792221       5.35249840       7.59574360
C       -6.03790122       4.95031415       6.44477238
C       -5.38489000       4.23517280       5.42639943
N       -6.11649940       3.87731828       4.28590927
C       -5.66801517       4.33006678       2.95364978
C       -6.32248354       5.71999798       2.73097986
C       -4.14147675       4.50730885       2.81554050
C       -6.17227682       3.30082856       1.91881681
C       -6.51600939       3.66430939       0.60287691
C       -6.93871225       2.70652064      -0.32582515
C       -7.01792352       1.36749960       0.04402750
Br      -7.58531714       0.07721787      -1.21415037
C       -6.67327900       0.97492334       1.33179590
C       -6.25012359       1.93311606       2.25694480
H       -2.26003660       1.36262751      -0.71018984
H       -3.67998355       2.77239017       0.68399498
H       -1.12349745       1.98473658       4.08050249
H        0.30600129       0.57067186       2.66031545
H       -2.30799164       4.04920124       6.88833710
H       -3.48044138       5.33538224       8.65002657
H       -5.88182474       5.90484863       8.37128188
H       -7.08975224       5.20513545       6.34576866
H       -7.11903867       3.98408489       4.40713518
H       -6.07056727       6.41155509       3.54408833
H       -7.41623629       5.64709163       2.69620823
H       -5.98458337       6.19146585       1.80167399
H       -3.86262234       4.68792223       1.77147681
H       -3.81333838       5.41441808       3.34388757
H       -6.45421251       4.69626871       0.26740432
H       -7.20058566       3.01740076      -1.33411346
H       -6.72418386      -0.06879805       1.63046276
H       -5.96985510       1.60027410       3.25737485
C        0.88143861      -0.88143861       0.88143861
C        0.31475226      -1.58793815       1.93965203
C        1.12052728      -2.39296293       2.75259419
C        2.49415988      -2.50115674       2.50575832
C        3.04741380      -1.78934794       1.42965365
C        2.24576984      -0.97682179       0.62247420
C        3.40265392      -3.35330974       3.34239282
N        4.51991247      -3.75881860       2.81304771
C        5.42774073      -4.53861498       3.55539303
C        6.78407569      -4.20723193       3.43504131
C        7.77101862      -4.96093220       4.06984614
C        7.41071125      -6.07134557       4.82410739
C        6.06534170      -6.42439512       4.94325092
C        5.05712492      -5.66979728       4.31954003
N        3.72328380      -6.06310755       4.49333560
C        2.75021604      -5.12040299       5.08111270
C        2.83344126      -5.32193737       6.61808275
C        3.04057042      -3.63307187       4.79068381
C        1.35344923      -5.49727088       4.54120208
C        0.17974232      -5.30817923       5.29527414
C       -1.07757598      -5.62705834       4.76992538
C       -1.18285448      -6.13391282       3.47839229
Br      -2.88266239      -6.55935536       2.77169166
C       -0.04405500      -6.32007794       2.70397529
C        1.21023670      -5.99955717       3.23039059
H       -0.75247250      -1.52689486       2.13805192
H        0.64058162      -2.94105024       3.55473683
H        4.11235779      -1.86097933       1.21539940
H        2.69631957      -0.43079653      -0.20213008
H        7.06725286      -3.35411694       2.82416019
H        8.81686871      -4.68720373       3.96177776
H        8.17469023      -6.66860344       5.31466158
H        5.80696911      -7.29836147       5.53532577
H        3.63163898      -6.99687290       4.88174685
H        3.85955194      -5.18598496       6.98067378
H        2.51984451      -6.33226134       6.90743030
H        2.21014421      -4.60456679       7.16301221
H        2.20540359      -3.00212495       5.11449285
H        3.89185301      -3.28558272       5.39420829
H        0.21475318      -4.90081736       6.30231499
H       -1.96622632      -5.47314722       5.37695206
H       -0.11402581      -6.70850689       1.69136748
H        2.08903063      -6.13926922       2.59920420
