181
Properties=species:S:1:pos:R:3 pbc="F F F"
C        0.00000000       0.00000000       0.00000000
C        0.88143861       0.88143861      -0.88143861
C        0.65098736       2.25397397      -0.93738112
C        1.45386013       3.06420303      -1.74802124
C        2.49511945       2.50665535      -2.49930014
C        2.71921805       1.12284711      -2.42435023
C        1.91192013       0.31038219      -1.62276351
C        3.38871925       3.32936631      -3.38027093
N        4.56371843       2.85399873      -3.67406163
C        5.43842796       3.56538374      -4.51793704
C        6.12364277       2.81765020      -5.48505594
C        7.06711558       3.41181796      -6.32286342
C        7.34897068       4.76639058      -6.19080294
C        6.68614458       5.52359476      -5.22324841
C        5.72466142       4.94357176      -4.37822905
N        5.07880352       5.76051323      -3.44041020
C        3.60715698       5.88220498      -3.46236978
C        3.28803205       7.04304689      -4.44238244
C        2.86623316       4.62770848      -3.97038446
C        3.14699276       6.21785658      -2.02707284
C        2.00992856       7.00618327      -1.76708385
C        1.59477176       7.26811057      -0.45652541
C        2.30598860       6.73986009       0.61639807
C        3.42532898       5.94725218       0.39258292
C        3.83705089       5.68600975      -0.91712382
H       -0.14435422       2.70653785      -0.35029066
H        1.25537074       4.12945884      -1.75153912
H        3.52566141       0.66693926      -2.99613584
H        2.10037587      -0.75923488      -1.58384503
H        5.92164030       1.75320963      -5.57068006
H        7.58801608       2.81301206      -7.06482207
H        8.08910561       5.23465469      -6.83419495
H        6.92474338       6.58025232      -5.13566065
H        5.53374802       6.65989142      -3.31661930
H        3.73448047       6.86375348      -5.42797674
H        3.68575637       7.99735722      -4.07642256
H        2.21111136       7.16391632      -4.60269553
H        1.78600457       4.72242695      -3.81358988
H        2.97418869       4.53635010      -5.06110523
H        1.41668567       7.42591500      -2.57528487
H        0.71445022       7.88292324      -0.28649950
H        3.98486949       5.52312910       1.22215002
H        4.70928509       5.04869114      -1.06952782
C        1.87435170       7.00882215       1.96359850
C        1.51285580       7.23407788       3.09187886
Br       0.92834750       7.59829734       4.91621278
C       -0.88143861      -0.88143861      -0.88143861
C       -1.55435254      -1.96539797      -0.32259193
C       -2.35923187      -2.77832153      -1.12853101
C       -2.50091789      -2.50589868      -2.49425837
C       -1.82278196      -1.40421860      -3.03941483
C       -1.01037299      -0.59681557      -2.23787728
C       -3.35455620      -3.34139385      -3.40240643
N       -3.79385493      -2.79796782      -4.49995604
C       -4.57707104      -3.53772500      -5.40695270
C       -4.27643430      -3.38295872      -6.76695590
C       -5.03739501      -4.01307001      -7.75133194
C       -6.12451862      -4.79739375      -7.38425184
C       -6.44706494      -4.95117915      -6.03474367
C       -5.68453975      -4.33257116      -5.02935133
N       -6.04645757      -4.54158687      -3.69168250
C       -5.07199517      -5.12933501      -2.75040156
C       -5.24391278      -6.66814716      -2.86140144
C       -3.59722715      -4.80224532      -3.06485363
C       -5.43068678      -4.62588448      -1.33535092
C       -5.20197136      -5.39958358      -0.18164075
C       -5.50529759      -4.90664871       1.09253856
C       -6.03601997      -3.62832507       1.23489442
C       -6.26149919      -2.83493882       0.11643977
C       -5.95644746      -3.32896726      -1.15476974
H       -1.46714349      -2.18415235       0.73882156
H       -2.88080935      -3.60126536      -0.65429399
H       -1.92084973      -1.16988276      -4.09800403
H       -0.49070324       0.24793974      -2.68222252
H       -3.44198298      -2.74886496      -7.05468205
H       -4.78769276      -3.87809359      -8.80006385
H       -6.72740793      -5.28460218      -8.14594514
H       -7.30325626      -5.56640298      -5.77099711
H       -6.97002622      -4.95108366      -3.58914886
H       -5.12194616      -7.00689315      -3.89737139
H       -6.24141461      -6.98472564      -2.53339590
H       -4.50282213      -7.21063010      -2.26427098
H       -2.94262229      -5.12980455      -2.24959454
H       -3.25528338      -5.38098703      -3.93537362
H       -4.77502686      -6.39702983      -0.24582885
H       -5.32065649      -5.52829734       1.96508088
H       -6.66890619      -1.83224594       0.21530356
H       -6.12718223      -2.68307480      -2.01724702
C       -6.34419393      -3.12301898       2.54763756
C       -6.60228963      -2.69982514       3.64705995
Br      -7.01960854      -2.01555648       5.42473296
C       -0.88143861       0.88143861       0.88143861
C       -1.78107180       1.76759918       0.29367146
C       -2.58704623       2.58051795       1.09852023
C       -2.50256743       2.50477180       2.49373570
C       -1.59691660       1.59984996       3.06964883
C       -0.78383303       0.79401280       2.26722001
C       -3.34617984       3.34901929       3.40315734
N       -3.54709134       2.92719516       4.61749228
C       -4.30719355       3.68687415       5.52768105
C       -3.80844350       3.78419166       6.83371376
C       -4.51963365       4.45135237       7.83081095
C       -5.75334807       5.01857663       7.53423950
C       -6.27200684       4.91900156       6.24197936
C       -5.56384289       4.26008350       5.22253584
N       -6.12796565       4.21117857       3.94058272
C       -5.38909833       4.77147541       2.79115800
C       -5.77910058       6.27244931       2.72191149
C       -3.85304940       4.69535035       2.91592635
C       -5.85088223       4.01348890       1.52755106
C       -5.89900099       4.62419618       0.25999852
C       -6.28948168       3.90550040      -0.87557434
C       -6.63166236       2.56146400      -0.76367574
C       -6.58203202       1.92649324       0.47147298
C       -6.19042416       2.64603268       1.60372762
H       -1.87023637       1.83031237      -0.78807446
H       -3.28716078       3.24419642       0.60501150
H       -1.51636578       1.52000409       4.15236664
H       -0.08620503       0.10413170       2.73464929
H       -2.85575436       3.31832281       7.07145282
H       -4.11513218       4.51346321       8.83725481
H       -6.31737716       5.53259225       8.30798584
H       -7.23989969       5.36719067       6.03356599
H       -7.10881817       4.47374672       3.92769385
H       -5.57414571       6.77948930       3.67257567
H       -6.84801224       6.39957812       2.51194579
H       -5.21608743       6.81030527       1.95133052
H       -3.37066772       4.97776480       1.97358887
H       -3.49154183       5.44117942       3.63892278
H       -5.62566517       5.66741736       0.12480300
H       -6.32005961       4.40466803      -1.84085468
H       -6.84003610       0.87540200       0.57041048
H       -6.14384166       2.12342675       2.56023564
C       -7.03011024       1.82408649      -1.93462137
C       -7.36381035       1.20653282      -2.91528834
Br      -7.90337519       0.20800076      -4.50094389
C        0.88143861      -0.88143861       0.88143861
C        1.12145026      -2.20412515       0.51676702
C        1.92489416      -3.01630307       1.32488717
C        2.49798356      -2.50701190       2.49607947
C        2.25307281      -1.16923173       2.84411086
C        1.44262593      -0.35916627       2.04327363
C        3.37076919      -3.33193952       3.39564777
N        4.20568075      -2.71002793       4.17607011
C        5.03286295      -3.42593372       5.06295206
C        5.16515599      -2.90428413       6.35690879
C        6.01675498      -3.49471693       7.29032505
C        6.76245399      -4.61157851       6.93213171
C        6.65380670      -5.13617712       5.64300392
C        5.79239110      -4.56059449       4.69347665
N        5.71200299      -5.14533025       3.42239371
C        4.41050907      -5.62543398       2.91578869
C        4.27113125      -7.08942440       3.41290572
C        3.18895611      -4.83933154       3.43603845
C        4.45884376      -5.55929485       1.37378357
C        3.75569234      -6.46763688       0.55986647
C        3.78934877      -6.36552969      -0.83547072
C        4.52131899      -5.34848567      -1.44035404
C        5.21582279      -4.42840788      -0.66423243
C        5.17948605      -4.53169515       0.72900325
H        0.69597619      -2.61292078      -0.39642269
H        2.10315388      -4.03423605       0.99897877
H        2.69127167      -0.74950127       3.74796358
H        1.26248869       0.67220654       2.33470386
H        4.60134479      -2.01572083       6.62846436
H        6.10541071      -3.07283571       8.28760378
H        7.43465011      -5.07204201       7.65126313
H        7.24872654      -6.00800092       5.38392890
H        6.45933090      -5.80879579       3.24213205
H        4.37375469      -7.14925336       4.50320264
H        5.04459497      -7.73516093       2.97978025
H        3.29396837      -7.51834018       3.16541466
H        2.27799241      -5.13829084       2.90573813
H        2.98782678      -5.09782644       4.48599080
H        3.15943385      -7.26771828       0.99073340
H        3.23878686      -7.08339748      -1.43831139
H        5.78523447      -3.62541940      -1.12480529
H        5.71944114      -3.78942163       1.31864128
C        4.55139168      -5.24446055      -2.87627688
C        4.57657756      -5.15733952      -4.07886226
Br       4.61730099      -5.01647217      -6.02334111
