197
Properties=species:S:1:pos:R:3 pbc="F F F"
C        0.00000000       0.00000000       0.00000000
C        0.88162704       0.88162704      -0.88162704
C        0.32450062       1.55519149      -1.96260166
C        1.13122316       2.37101627      -2.76006985
C        2.50342353       2.51186993      -2.49425607
N        3.30454225       3.44976855      -3.20261908
C        3.07293583       3.81123010      -4.51520639
C        3.11553580       3.14255306      -5.68431335
C        3.43811113       1.68336782      -5.76545382
C        4.10189981       1.19478178      -7.04836042
C        3.13382705       1.21540716      -8.22168463
C        3.04654115       2.56378715      -8.91848718
C        2.78490154       3.79813856      -8.11203943
C        2.83975853       4.04230285      -6.79334417
N        2.60741338       5.29372187      -6.22873148
C        2.46660930       6.54960541      -6.87847410
C        3.45101218       6.94812790      -7.80000843
C        3.38366729       8.19133610      -8.42999943
C        2.32829925       9.04815491      -8.14135120
Br       2.23293663      10.73630272      -8.98628742
C        1.33990053       8.67043966      -7.23340720
C        1.38836534       7.41438391      -6.59982493
C        0.27147455       7.05735142      -5.65665829
C        2.76323451       5.23505871      -4.84539559
O        2.71608305       6.11098479      -3.99483857
C        3.05387791       1.84649045      -1.37756430
C        4.51994729       1.94869234      -1.05104566
C        2.23732238       1.01585482      -0.59048018
H       -0.73544616       1.46830762      -2.18476610
H        0.66685971       2.91457718      -3.57871896
H        3.31584738       4.30931012      -2.63829511
H        4.11000925       1.41714961      -4.93863603
H        2.51452471       1.11313479      -5.60069154
H        5.01052772       1.76726804      -7.26989704
H        4.41737901       0.15653719      -6.88597739
H        2.13459792       0.89217309      -7.90427651
H        3.46914445       0.47971411      -8.96379152
H        2.25750129       2.49059205      -9.67824107
H        3.97882501       2.73229417      -9.47323344
H        2.51778131       4.62815957      -8.76559329
H        4.30519734       6.30570875      -8.00303397
H        4.16419472       8.48370463      -9.12691080
H        0.51863218       9.35095749      -7.01774399
H        0.09391638       5.97778551      -5.62917678
H       -0.66931554       7.51460451      -5.98408812
H        0.49540892       7.41610184      -4.64803865
H        4.72091519       1.62071253      -0.02566157
H        4.87318456       2.98150794      -1.12758834
H        5.09656433       1.31651409      -1.73336551
H        2.66315846       0.48437596       0.25806066
C       -0.88162704      -0.88162704      -0.88162704
C       -2.12917957      -1.28953559      -0.42357862
C       -2.93884678      -2.08590554      -1.23755695
C       -2.50587374      -2.49334225      -2.51033354
N       -3.37378596      -3.17679421      -3.40634971
C       -4.37928500      -4.02799546      -2.99209186
C       -4.38812587      -5.20969309      -2.34458326
C       -3.13489726      -5.87853930      -1.87349622
C       -3.15691604      -7.40079791      -1.78732807
C       -4.04046826      -7.88354723      -0.64690335
C       -5.50988984      -7.99976619      -1.01915945
C       -6.20742522      -6.83558825      -1.65206607
C       -5.74857626      -5.70848277      -2.21834652
N       -6.56886361      -4.75128434      -2.80971878
C       -7.95600929      -4.83116874      -3.10751079
C       -8.43029673      -5.94295375      -3.82589804
C       -9.77503026      -6.04630144      -4.18367111
C      -10.65792105      -5.03476771      -3.82511660
Br     -12.48000071      -5.16458208      -4.31094399
C      -10.20849867      -3.92580917      -3.10943955
C       -8.85726491      -3.81425306      -2.73105621
C       -8.44684536      -2.60760365      -1.93103525
C       -5.79988122      -3.71285959      -3.33094800
O       -6.11712143      -2.72640047      -3.97838451
C       -1.24966970      -2.05045481      -2.97780815
C       -0.72685826      -2.46570146      -4.32712557
C       -0.43593702      -1.26231789      -2.14540248
H       -2.48976188      -0.98190499       0.55403932
H       -3.92398340      -2.36395472      -0.87221773
H       -3.79911073      -2.45805908      -4.00628280
H       -2.30942523      -5.61017488      -2.54619478
H       -2.86990599      -5.46814991      -0.89029513
H       -3.45595513      -7.84968441      -2.74205326
H       -2.13182347      -7.73838934      -1.58968079
H       -3.92641384      -7.23600778       0.23137410
H       -3.69724674      -8.87871938      -0.33668396
H       -6.06068081      -8.25982196      -0.10583164
H       -5.63327919      -8.85619461      -1.69487881
H       -7.28643825      -6.98709346      -1.63800246
H       -7.74260924      -6.72103014      -4.15030069
H      -10.11532210      -6.90740138      -4.75208668
H      -10.91116817      -3.14178400      -2.83438148
H       -7.60410026      -2.82820768      -1.26857073
H       -9.26764525      -2.27803770      -1.28369414
H       -8.18111346      -1.78160804      -2.59682791
H        0.10207537      -1.82442545      -4.64493921
H       -1.50159868      -2.38504196      -5.09564021
H       -0.36559837      -3.49780825      -4.28303730
H        0.54210210      -0.93736091      -2.49421495
C       -0.88162704       0.88162704       0.88162704
C       -0.58892375       1.01977189       2.23359813
C       -1.39009343       1.83703939       3.03517644
C       -2.49806701       2.51335532       2.49812719
N       -3.23201418       3.46122591       3.26368980
C       -3.39303934       3.37384209       4.63249088
C       -4.01127631       2.49045199       5.44067391
C       -4.69948557       1.26788447       4.91956273
C       -5.87215237       0.73633017       5.73655948
C       -5.40652248       0.11813902       7.04625734
C       -5.23177026       1.12681236       8.17023286
C       -4.40048905       2.35148442       7.94310607
C       -3.92487116       2.92425568       6.82627870
N       -3.20065431       4.11346566       6.81574676
C       -2.98450759       5.03185077       7.87833045
C       -4.09494321       5.50400148       8.60020382
C       -3.94128148       6.44176468       9.62195665
C       -2.67187034       6.91631070       9.92962433
Br      -2.45598569       8.19098147      11.30855962
C       -1.55734726       6.45807696       9.22832317
C       -1.69597568       5.50300642       8.20359208
C       -0.44801748       5.02717506       7.51029172
C       -2.86989998       4.46506811       5.50872072
O       -2.30708967       5.45314947       5.06166728
C       -2.77013676       2.38927460       1.11852130
C       -3.95117187       3.07907700       0.48943642
C       -1.96749610       1.55257549       0.32358580
H        0.26654768       0.51285696       2.67131827
H       -1.12170836       1.95690607       4.08154143
H       -2.82661380       4.38271126       3.05412755
H       -5.08196647       1.47301564       3.91081279
H       -3.95318632       0.47098528       4.80417943
H       -6.62434583       1.51565100       5.90769597
H       -6.36197756      -0.04770267       5.14561871
H       -4.47595423      -0.44408700       6.89918029
H       -6.15554331      -0.61485919       7.37196595
H       -4.80593781       0.59151026       9.02888633
H       -6.22449991       1.46603253       8.49382018
H       -4.17947937       2.84062605       8.89142876
H       -5.09870731       5.17368688       8.34154588
H       -4.81584581       6.80337716      10.15558719
H       -0.56918378       6.83749669       9.48065318
H       -0.55123629       3.99855232       7.15109005
H        0.40062172       5.02603073       8.20396808
H       -0.20479489       5.68425494       6.67049957
H       -3.85497483       3.11326722      -0.60095275
H       -4.03537806       4.11487961       0.83202317
H       -4.87053667       2.53929197       0.73661529
H       -2.18759296       1.43762045      -0.73573965
C        0.88162704      -0.88162704       0.88162704
C        0.81976027      -2.26487979       0.75765371
C        1.63672359      -3.06859836       1.55698732
C        2.51310494      -2.50016505       2.49627954
N        3.45385791      -3.29375280       3.20931917
C        3.22858338      -4.61020474       3.56058420
C        2.34678414      -5.21511137       4.38050670
C        1.29665246      -4.45843009       5.13185022
C        0.83399185      -5.05381653       6.45723364
C        0.00972986      -6.31491461       6.24627437
C        0.84704304      -7.57603949       6.10573295
C        1.96804093      -7.61347449       5.11356411
C        2.59943217      -6.64666272       4.42931066
N        3.67437278      -6.87994240       3.57555155
C        4.42452441      -8.07347336       3.39669104
C        4.95246722      -8.71641061       4.53027068
C        5.73481666      -9.86500637       4.40517979
C        5.99639134     -10.38014456       3.14126946
Br       7.06004013     -11.93247497       2.96301167
C        5.47918286      -9.75978810       2.00477644
C        4.67814650      -8.60771896       2.11670872
C        4.12488625      -8.00856013       0.85203788
C        4.12977118      -5.67945132       3.03446631
O        5.07957511      -5.43737879       2.30495252
C        2.58930586      -1.09401612       2.59461067
C        3.49951124      -0.42822993       3.59194411
C        1.75224388      -0.29441604       1.79699746
H        0.15542241      -2.72850126       0.03370388
H        1.59600370      -4.14581525       1.41833692
H        4.33122598      -3.25802406       2.67420257
H        1.66799576      -3.44817083       5.34962830
H        0.42646226      -4.32625779       4.47563099
H        1.68112170      -5.23781826       7.12875283
H        0.19716045      -4.31019765       6.95253550
H       -0.65037351      -6.20448943       5.37693161
H       -0.64996698      -6.44972179       7.11289527
H        0.16262997      -8.39965158       5.86405285
H        1.27524963      -7.82312584       7.08597715
H        2.30855113      -8.63789117       4.96509187
H        4.79164662      -8.29993475       5.52235869
H        6.14463294     -10.33565689       5.29452033
H        5.69115071     -10.17475310       1.02142984
H        3.16858473      -7.50577827       1.02651566
H        3.92912059      -8.79071020       0.10954630
H        4.83770030      -7.29832465       0.42352446
H        3.64838671       0.62894840       3.34785098
H        4.48982422      -0.89360714       3.59884948
H        3.06189196      -0.49151801       4.59303396
H        1.79287975       0.78922895       1.88582296
