189
Properties=species:S:1:pos:R:3 pbc="F F F"
C        0.00000000       0.00000000       0.00000000
C        0.88179685       0.88179685      -0.88179685
C        2.20585963       1.11930596      -0.51932271
C        3.01272789       1.92186275      -1.32990705
C        2.50246579       2.48864295      -2.51049330
C        1.16279211       2.24477728      -2.85424254
C        0.35587782       1.44273255      -2.04334042
C        3.38050159       3.35612848      -3.40293601
H        2.80189733       3.68069339      -4.27752516
O        3.68384838       4.56237805      -2.68790880
C        4.61263174       2.63161099      -3.94069399
C        4.37363839       1.48984287      -4.74257769
C        5.42137440       0.73505208      -5.26257886
O        5.07996177      -0.35402789      -6.02116050
C        6.20273118      -0.86317816      -6.75030037
C        7.44767282      -0.91050221      -5.87910852
O        7.81933826       0.40579697      -5.46012025
C        6.73482799       1.10018823      -4.98797813
C        6.99697331       2.22769151      -4.21162674
C        5.95251963       2.99467770      -3.67201446
N        6.21771732       4.14504701      -2.89226426
C        7.40006268       4.44395965      -2.23357211
O        8.35559713       3.68367129      -2.11819471
C        7.45874742       5.76770783      -1.54521488
C        6.32434005       6.23621339      -0.85717732
C        6.36223202       7.44324720      -0.15513277
C        7.53755318       8.18717241      -0.11002154
C        8.67179668       7.73183191      -0.77977704
C        8.63701038       6.53173078      -1.50412410
H        2.62196707       0.67868371       0.38267709
H        4.05033285       2.09164216      -1.04367743
H        0.73776694       2.66805914      -3.76263723
H       -0.67620711       1.25582086      -2.32942588
H        2.91260497       4.73396768      -2.11653341
H        3.35494137       1.17420950      -4.96108343
H        5.94563437      -1.86999770      -7.09272714
H        6.35614752      -0.23040299      -7.63295155
H        8.28692724      -1.32922406      -6.44250750
H        7.29197071      -1.52987951      -4.98712230
H        8.03756285       2.49837054      -4.05250183
H        5.40723507       4.74233335      -2.74379783
H        5.40607804       5.65502175      -0.82915874
H        5.47760727       7.79545906       0.37227528
H        7.57425419       9.11918225       0.44902573
H        9.58463528       8.32334861      -0.73444825
C        9.84412546       6.19042603      -2.21121973
C       10.85508435       5.90458330      -2.80341231
Br      12.48971937       5.44239978      -3.76093765
C       -0.88179685      -0.88179685      -0.88179685
C       -0.38298188      -1.37672627      -2.08478015
C       -1.18913677      -2.18764615      -2.88771477
C       -2.49774416      -2.51271416      -2.49114373
C       -2.98552527      -1.99690699      -1.27937967
C       -2.17954778      -1.18556424      -0.47683877
C       -3.37736279      -3.40441236      -3.35779092
H       -4.34611498      -3.55119137      -2.86280953
O       -3.67966619      -2.68987592      -4.56459312
C       -2.79438305      -4.79592024      -3.59463344
C       -2.57061949      -5.59064050      -2.44479896
C       -2.01634002      -6.86416108      -2.53850424
O       -1.83659596      -7.54670075      -1.36379766
C       -1.56169478      -8.93324496      -1.59491365
C       -0.56955367      -9.11428095      -2.73244451
O       -1.11225725      -8.61484368      -3.95815455
C       -1.66611311      -7.37208434      -3.78479688
C       -1.88812723      -6.61460896      -4.93355538
C       -2.43763533      -5.32526538      -4.85631109
N       -2.67263658      -4.55971829      -6.02267373
C       -2.07859786      -4.73656107      -7.26243552
O       -1.15302376      -5.50597650      -7.49846287
C       -2.56165913      -3.84859531      -8.36141569
C       -2.83749901      -2.49723789      -8.08299387
C       -3.23655878      -1.62531548      -9.09873772
C       -3.34309896      -2.08291302     -10.40873515
C       -3.06514757      -3.41690447     -10.70135360
C       -2.68391797      -4.30420360      -9.68474369
H        0.63089120      -1.14732801      -2.40153688
H       -0.78534693      -2.57938686      -3.82091865
H       -3.99413154      -2.23098290      -0.94334887
H       -2.56933142      -0.80286367       0.46315546
H       -3.69866245      -1.74680566      -4.31763795
H       -2.82283320      -5.21136430      -1.45603679
H       -1.15131743      -9.34776833      -0.66927805
H       -2.51003285      -9.44199903      -1.80666419
H       -0.34867849     -10.17631946      -2.87521274
H        0.37442323      -8.59306540      -2.53057132
H       -1.63413768      -7.06439856      -5.88989899
H       -3.26983636      -3.74913857      -5.87439132
H       -2.71465078      -2.09509076      -7.08051699
H       -3.44811788      -0.58230953      -8.87036363
H       -3.63813661      -1.40235527     -11.20391884
H       -3.15113261      -3.76049214     -11.73080738
C       -2.48561666      -5.67234686     -10.08780770
C       -2.31953931      -6.81816684     -10.42537381
Br      -2.05100629      -8.67086085     -10.97118967
C       -0.88179685       0.88179685       0.88179685
C       -2.21367802       1.09666762       0.53414266
C       -3.02043826       1.89927550       1.34478393
C       -2.50217140       2.48875414       2.51067650
C       -1.15484623       2.26748298       2.83948273
C       -0.34805115       1.46538337       2.02851628
C       -3.37987189       3.35643664       3.40325754
H       -2.79408345       3.70051370       4.26551872
O       -3.70904763       4.54873458       2.67635302
C       -4.59478583       2.62287165       3.96727925
C       -4.32966466       1.49535981       4.78103447
C       -5.36004514       0.73374983       5.32521038
O       -4.99381504      -0.34030149       6.09358082
C       -6.09974739      -0.85448610       6.84459210
C       -7.35546099      -0.93022780       5.99104595
O       -7.75047837       0.37519541       5.55958171
C       -6.68187317       1.07755604       5.06356513
C       -6.96960791       2.19084203       4.27584163
C       -5.94293627       2.96433583       3.71193969
N       -6.23407782       4.10039692       2.92055385
C       -7.42905564       4.37454261       2.27399619
O       -8.37566458       3.60006501       2.18173354
C       -7.51484817       5.68794735       1.56887460
C       -6.39618060       6.16220658       0.85934359
C       -6.45978671       7.35901049       0.14181478
C       -7.64557027       8.08648968       0.10268718
C       -8.76449649       7.62514780       0.79376135
C       -8.70379140       6.43553578       1.53353808
H       -2.63579384       0.63835382      -0.35617396
H       -4.06397788       2.05128782       1.07038674
H       -0.72349408       2.70866524       3.73630399
H        0.69019948       1.29616618       2.30307293
H       -2.94789976       4.72285977       2.09234653
H       -3.30395947       1.19635039       4.98992443
H       -5.82449089      -1.85305275       7.19692567
H       -6.24991245      -0.21192415       7.72070779
H       -8.18136807      -1.35245704       6.57129965
H       -7.20331668      -1.55949016       5.10538698
H       -8.01579975       2.44541678       4.12721869
H       -5.43381246       4.70639197       2.75316182
H       -5.47058993       5.59300743       0.82666117
H       -5.58713621       7.71583515      -0.40218032
H       -7.70235171       9.01027141      -0.46821240
H       -9.68578433       8.20374950       0.75289831
C       -9.89662120       6.08774111       2.26140891
C      -10.89561615       5.79646308       2.87100073
Br     -12.51090650       5.32549114       3.85665915
C        0.88179685      -0.88179685       0.88179685
C        0.58609539      -1.02244749       2.23594542
C        1.39065029      -1.83375039       3.04009700
C        2.49351291      -2.51327421       2.49481493
C        2.78049082      -2.35175935       1.12956176
C        1.97627204      -1.54001996       0.32565879
C        3.36798809      -3.40682290       3.36475509
H        4.15604831      -3.85690413       2.74716344
O        4.06087108      -2.57079950       4.30246465
C        2.60923931      -4.56297984       4.01271756
C        1.98971645      -5.48306212       3.13328038
C        1.24763657      -6.55900884       3.61235993
O        0.68512528      -7.38626727       2.67570182
C        0.22074569      -8.60840110       3.26070660
C       -0.50433263      -8.34912908       4.57148268
O        0.38348372      -7.76981606       5.53195571
C        1.10151616      -6.73777522       4.98370296
C        1.71230876      -5.85312840       5.87085441
C        2.45644105      -4.75795259       5.40481814
N        3.08511727      -3.86530013       6.30461120
C        2.76481495      -3.67335447       7.63942502
O        1.79190030      -4.15698433       8.20857851
C        3.63797820      -2.73200714       8.40168479
C        4.08612005      -1.55240438       7.77920633
C        4.85715386      -0.62263421       8.48082391
C        5.17166275      -0.84490509       9.81817929
C        4.72788827      -2.00481831      10.45069905
C        3.97090490      -2.95349137       9.74846899
H       -0.27033041      -0.51571695       2.67258716
H        1.14372466      -1.94651660       4.09541118
H        3.62666266      -2.86529984       0.67650081
H        2.20660767      -1.43397733      -0.73154537
H        4.19570571      -1.71798172       3.84941863
H        2.07677477      -5.35810249       2.05535703
H       -0.45706539      -9.08150848       2.54392072
H        1.08290135      -9.27090647       3.40488826
H       -0.87764299      -9.28917015       4.98868353
H       -1.35780218      -7.67388063       4.43313504
H        1.60332039      -6.05108084       6.93403400
H        3.77123290      -3.25196637       5.87016698
H        3.81541707      -1.32324357       6.75159789
H        5.19870788       0.28564465       7.98772782
H        5.75828245      -0.11504425      10.37108402
H        4.98013569      -2.16467974      11.49761670
C        3.62206844      -4.14389053      10.47981225
C        3.32991791      -5.14084983      11.09231223
Br       2.85753521      -6.75284869      12.08267290
