114
Properties=species:S:1:pos:R:3 pbc="F F F"
C        1.82499309       1.82499309      -1.82499309
C        1.09398090       2.47736147      -3.00179670
C       -0.08769483       3.35509930      -2.55795355
C        2.10108021       3.32574079      -3.81803827
N        1.64227348       3.36390833      -5.20504079
C        0.82421944       2.32892866      -5.56886760
N        0.30921695       2.11375257      -6.72265450
C        0.58797363       3.02434705      -7.71903454
O        0.11331902       2.90582184      -8.84477811
C        1.51147682       4.18072046      -7.40304320
Br       1.92399867       5.37060195      -8.79478268
C        2.02058534       4.30190373      -6.15115239
N        2.89216164       5.32786593      -5.80762163
S        0.49468284       1.24620623      -4.23462526
H        2.64858848       1.18276974      -2.15510029
H        2.23787646       2.58384529      -1.15183811
H       -0.51418293       3.92380157      -3.39295546
H        0.23766532       4.08575285      -1.80815924
H       -0.90100789       2.76985726      -2.11598255
H        2.18722239       4.33260596      -3.39091029
H        3.10344066       2.87761008      -3.79848011
H        3.20920619       5.85339974      -6.62413011
H        3.68527786       4.99660379      -5.26685223
C       -1.82499309      -1.82499309      -1.82499309
C       -3.26694659      -1.97442403      -1.33176845
C       -3.99615009      -0.62712204      -1.20208589
C       -4.04238828      -2.90019274      -2.30227824
N       -5.09502367      -3.57258926      -1.54360967
C       -4.86895426      -3.65652724      -0.19653420
N       -5.61546528      -4.21387376       0.68371502
C       -6.78986762      -4.78679480       0.24530719
O       -7.57319386      -5.31776821       1.02704310
C       -7.09629950      -4.76255321      -1.23638777
Br      -8.67140442      -5.60462637      -1.81335252
C       -6.22395609      -4.16380936      -2.08587600
N       -6.43870458      -4.13082513      -3.45811949
S       -3.37775872      -2.87151430       0.27375869
H       -1.30843963      -2.78871927      -1.88929962
H       -1.79687087      -1.36034443      -2.81634456
H       -5.06298350      -0.75608532      -0.98350527
H       -3.92901936      -0.06289642      -2.13966163
H       -3.57686054       0.00114228      -0.40911366
H       -4.45185768      -2.32019647      -3.13868449
H       -3.38257117      -3.66650791      -2.73045177
H       -7.21670945      -4.72939274      -3.74063385
H       -5.60218484      -4.36054347      -3.98600557
C       -1.82499309       1.82499309       1.82499309
C       -1.05505508       2.81875299       2.69933100
C       -0.17084743       3.77371560       1.88079499
C       -2.06188128       3.63371031       3.54926767
N       -1.39290675       4.03242550       4.78589034
C       -0.33057038       3.24754580       5.14389952
N        0.40509067       3.36371388       6.18700081
C        0.11812099       4.39871454       7.05076167
O        0.79032904       4.59548820       8.05875981
C       -1.06267359       5.29260319       6.73996370
Br      -1.46901698       6.65528926       7.96507706
C       -1.78996835       5.06670539       5.61696771
N       -2.89862277       5.83800427       5.29102217
S       -0.01647723       1.98592430       3.97311281
H       -2.43150602       1.13429769       2.42065481
H       -2.49241111       2.34875490       1.13239385
H        0.26488218       4.56526046       2.50219582
H       -0.76106451       4.26937725       1.10113566
H        0.65848748       3.25640387       1.38691554
H       -2.42355757       4.50224636       2.98493472
H       -2.93963851       3.02822135       3.81167099
H       -3.17397056       6.45843904       6.05432644
H       -3.68673454       5.27370208       4.98829726
C        1.82499309      -1.82499309       1.82499309
C        3.23265690      -2.06736595       1.27311623
C        4.01653725      -0.76473164       1.04408913
C        4.01062302      -2.98372044       2.25051581
N        4.99258246      -3.74122311       1.47741703
C        4.69740923      -3.87659273       0.14801374
N        5.37336022      -4.51002800      -0.73776419
C        6.53983286      -5.11854700      -0.32702463
O        7.25854769      -5.72288335      -1.11751206
C        6.91897652      -5.04039733       1.13586662
Br       8.47948181      -5.93055965       1.67934183
C        6.11790402      -4.36095107       1.99478636
N        6.40064004      -4.27469653       3.35231262
S        3.22317246      -3.04249302      -0.29015115
H        1.26792961      -2.75833804       1.96019086
H        1.86690590      -1.31392264       2.79273132
H        5.06428380      -0.95561064       0.78267965
H        4.02153813      -0.15490877       1.95513052
H        3.58873759      -0.15432204       0.24177229
H        4.48693839      -2.38611791       3.03768235
H        3.33755345      -3.69619150       2.74578590
H        7.16281893      -4.89671683       3.62720028
H        5.58109036      -4.43853344       3.92911007
C       -0.00445707       0.01189536      -1.78238275
H       -0.66409135       0.67374010      -2.43557963
H        0.65740317      -0.63156657      -2.45157240
C       -0.90989263      -0.90692880      -0.91072765
C        0.90977584       0.90977584      -0.90977584
C       -0.00465871       1.77757030       0.00794375
H       -0.66225468       2.44313916      -0.64384735
H        0.64322798       2.43503045       0.67728295
C       -1.78241447       0.00034974      -0.00472694
H       -2.45427497      -0.65498947       0.64260836
H       -2.43311707       0.67328779      -0.65473579
C       -0.91132561       0.90220522       0.91563759
C       -0.01476271      -0.02253852       1.78660255
H       -0.67934791      -0.69751639       2.42135241
H        0.63392994       0.61504881       2.47327442
C        0.01484550      -1.77751727      -0.01636693
H        0.67870853      -2.42144646      -0.68295456
H       -0.62264859      -2.45592969       0.64226336
C        1.78714474       0.01002794       0.00389507
H        2.44202412       0.67113390       0.66197326
H        2.45385902      -0.65136977      -0.64189061
C        0.91606151      -0.90478549       0.90901405
