122
Properties=species:S:1:pos:R:3 pbc="F F F"
C        1.82499309       1.82499309      -1.82499309
C        1.09398090       2.47736147      -3.00179670
C       -0.08769483       3.35509930      -2.55795355
C        2.10108021       3.32574079      -3.81803827
N        1.64227348       3.36390833      -5.20504079
C        0.82421944       2.32892866      -5.56886760
N        0.30921695       2.11375257      -6.72265450
C        0.58797363       3.02434705      -7.71903454
O        0.11331902       2.90582184      -8.84477811
C        1.51147682       4.18072046      -7.40304320
C        2.02058534       4.30190373      -6.15115239
N        2.89216164       5.32786593      -5.80762163
S        0.49468284       1.24620623      -4.23462526
H        2.64858848       1.18276974      -2.15510029
H        2.23787646       2.58384529      -1.15183811
H       -0.51418293       3.92380157      -3.39295546
H        0.23766532       4.08575285      -1.80815924
H       -0.90100789       2.76985726      -2.11598255
H        2.18722239       4.33260596      -3.39091029
H        3.10344066       2.87761008      -3.79848011
H        3.20920619       5.85339974      -6.62413011
H        3.68527786       4.99660379      -5.26685223
C        1.82796491       5.09360138      -8.47079022
C        2.09302369       5.85813916      -9.36502836
Br       2.52160132       7.09433207     -10.81093578
C       -1.82499309      -1.82499309      -1.82499309
C       -3.23812080      -2.05370710      -1.28131117
C       -4.01443730      -0.74408461      -1.06683611
C       -4.01566935      -2.97145077      -2.25773914
N       -5.00825664      -3.71668007      -1.48628589
C       -4.72328557      -3.84478980      -0.15394034
N       -5.40979410      -4.46729602       0.73146610
C       -6.57761431      -5.07055252       0.31681160
O       -7.30601858      -5.66433098       1.10643059
C       -6.94602439      -5.00001064      -1.14920545
C       -6.13426507      -4.33217736      -2.00719903
N       -6.40694783      -4.25346362      -3.36723775
S       -3.24632792      -3.01791079       0.28872436
H       -1.27354982      -2.76311092      -1.94979778
H       -1.85660022      -1.32042974      -2.79652990
H       -5.06528590      -0.92584204      -0.81144616
H       -4.00883719      -0.14063335      -1.98210687
H       -3.58796265      -0.13106251      -0.26580676
H       -4.48230734      -2.37607625      -3.05235505
H       -3.34417689      -3.69203206      -2.74332190
H       -7.17153272      -4.87208000      -3.64312332
H       -5.58457563      -4.42702622      -3.93713203
C       -8.14507281      -5.67750969      -1.56977402
C       -9.14927586      -6.24491514      -1.92200021
Br     -10.77298727      -7.16236176      -2.49152015
C       -1.82499309       1.82499309       1.82499309
C       -1.05325350       2.73773700       2.78214857
C       -0.08619595       3.68538974       2.05377234
C       -2.06135538       3.56047884       3.62302505
N       -1.43598499       3.86755120       4.90768641
C       -0.43040841       3.01555907       5.27604822
N        0.25777418       3.04651751       6.35688069
C       -0.02250994       4.05280085       7.25604444
O        0.60786193       4.16893786       8.30284304
C       -1.14348843       5.01715810       6.93459395
C       -1.82453627       4.88005101       5.76905417
N       -2.87853427       5.71926740       5.42984753
S       -0.11859307       1.79621408       4.06070719
H       -2.49168358       1.13779355       2.35698138
H       -2.43235174       2.41273571       1.12847241
H        0.35506153       4.42463311       2.73300251
H       -0.61357157       4.24538051       1.27262534
H        0.74126962       3.15165970       1.57444184
H       -2.35383925       4.47118535       3.08571405
H       -2.97831325       2.98720548       3.81401212
H       -3.16169244       6.31607053       6.20897306
H       -3.67637542       5.20913243       5.06322603
C       -1.45174367       6.03152667       7.90908617
C       -1.70990744       6.88106035       8.72522341
Br      -2.12733641       8.25468447      10.04484831
C        1.82499309      -1.82499309       1.82499309
C        3.22656514      -2.08218571       1.26438822
C        4.01847073      -0.78729667       1.01959062
C        4.00500225      -2.99703078       2.24282623
N        4.97533768      -3.76775995       1.46812496
C        4.66907724      -3.91089161       0.14204685
N        5.33350100      -4.55608742      -0.74396440
C        6.49844142      -5.17032813      -0.33741433
O        7.20656854      -5.78603367      -1.12868324
C        6.88924934      -5.08404515       1.12194599
C        6.09985388      -4.39209401       1.98169357
N        6.39352138      -4.29776855       3.33635927
S        3.19788061      -3.06895484      -0.29132111
H        1.26195997      -2.75304094       1.97145760
H        1.87809260      -1.30698377       2.78848349
H        5.06273727      -0.98808113       0.75175570
H        4.03497381      -0.17068742       1.92591618
H        3.58920482      -0.17971721       0.21590989
H        4.49176118      -2.39714922       3.02182824
H        3.33036413      -3.70062638       2.74854034
H        7.15305890      -4.92346562       3.61021151
H        5.57716060      -4.45103632       3.92053696
C        8.08442693      -5.77288451       1.53504508
C        9.08538817      -6.34978747       1.88101557
Br      10.70385783      -7.28259076       2.44042059
C       -0.00445707       0.01189536      -1.78238275
H       -0.66409135       0.67374010      -2.43557963
H        0.65740317      -0.63156657      -2.45157240
C       -0.90989263      -0.90692880      -0.91072765
C        0.90977584       0.90977584      -0.90977584
C       -0.00465871       1.77757030       0.00794375
H       -0.66225468       2.44313916      -0.64384735
H        0.64322798       2.43503045       0.67728295
C       -1.78241447       0.00034974      -0.00472694
H       -2.45427497      -0.65498947       0.64260836
H       -2.43311707       0.67328779      -0.65473579
C       -0.91132561       0.90220522       0.91563759
C       -0.01476271      -0.02253852       1.78660255
H       -0.67934791      -0.69751639       2.42135241
H        0.63392994       0.61504881       2.47327442
C        0.01484550      -1.77751727      -0.01636693
H        0.67870853      -2.42144646      -0.68295456
H       -0.62264859      -2.45592969       0.64226336
C        1.78714474       0.01002794       0.00389507
H        2.44202412       0.67113390       0.66197326
H        2.45385902      -0.65136977      -0.64189061
C        0.91606151      -0.90478549       0.90901405
