181
Properties=species:S:1:pos:R:3 pbc="F F F"
C        0.00000000       0.00000000       0.00000000
C        0.88187690       0.88187690      -0.88187690
C        2.26959909       0.84229242      -0.72735958
C        3.08127478       1.67067383      -1.50418788
C        2.50250056       2.54379817      -2.42340544
C        1.11165601       2.56784284      -2.57956458
C        0.29184676       1.73556016      -1.81180382
C        0.51786586       3.56752653      -3.49455563
O        0.89842792       4.72884365      -3.40987081
N       -0.37641718       3.06116263      -4.41484932
C       -1.15145199       3.82870561      -5.31932143
C       -1.49884592       5.15225789      -5.02423186
C       -2.29567421       5.88755778      -5.89900277
O       -2.57134400       7.18108270      -5.53855162
C       -3.03245343       7.94472776      -6.65580107
C       -4.10024481       7.18178764      -7.42246730
O       -3.58276940       5.95912004      -7.96382134
C       -2.79207587       5.29546886      -7.06142544
C       -2.46880635       3.97364301      -7.36587148
C       -1.62234955       3.24387644      -6.51796506
C       -1.20337656       1.85882590      -6.86803260
O       -1.13512616       1.03904295      -5.94812851
C       -0.79433162       1.42694745      -8.24141963
C       -0.59202112       2.30905295      -9.31184896
C       -0.21227011       1.82497091     -10.56922389
C        0.01267554       0.46301807     -10.75934692
C       -0.13990982      -0.41278660      -9.68860492
C       -0.54613568       0.05818725      -8.44003046
H        2.72679402       0.18009032       0.00444997
H        4.16093654       1.64966057      -1.37995357
H        3.12831725       3.21339595      -3.00961598
H       -0.78913474       1.78765969      -1.90820134
H       -0.38964086       2.04978670      -4.57071047
H       -1.17179965       5.62952493      -4.10405530
H       -3.44295164       8.88292436      -6.26910967
H       -2.17193719       8.18629774      -7.29197108
H       -4.46288133       7.78613866      -8.26012044
H       -4.95502794       6.93819795      -6.78039532
H       -2.89077452       3.52781643      -8.26274484
H       -0.70590530       3.38324535      -9.20224996
H       -0.07960871       2.51506127     -11.39960156
H        0.31939300       0.09788504     -11.73656094
H       -0.65742327      -0.64069736      -7.61265602
C        0.13416863      -1.81486963      -9.86928188
C        0.36370934      -2.98911418     -10.02059883
Br       0.73485724      -4.88776829     -10.26526555
C       -0.88187690      -0.88187690      -0.88187690
C       -0.43447560      -1.25262592      -2.15214956
C       -1.24860160      -2.02875287      -2.97878202
C       -2.51109385      -2.42094579      -2.53766453
C       -2.94594766      -2.05453634      -1.25857944
C       -2.13367223      -1.28461918      -0.42091934
C       -4.32430346      -2.40504119      -0.85060336
O       -5.23787267      -2.16779404      -1.63147567
N       -4.43074011      -3.03889946       0.37004480
C       -5.64360928      -3.37437496       1.02140919
C       -6.81393124      -2.64487044       0.78115786
C       -7.99278866      -2.95414197       1.45604430
O       -9.09424723      -2.19951617       1.14547308
C      -10.29955736      -2.83978731       1.57126927
C      -10.16512227      -3.33929950       3.00041164
O       -9.13021433      -4.32499133       3.11503368
C       -8.00726632      -3.97033595       2.41278384
C       -6.84805289      -4.69911223       2.67645699
C       -5.67108026      -4.43037085       1.96195916
C       -4.44699028      -5.25073135       2.17423970
O       -3.36318158      -4.66058048       2.17171676
C       -4.44859000      -6.74074119       2.31529574
C       -5.57298269      -7.54724348       2.09134538
C       -5.49354329      -8.93605221       2.24767081
C       -4.28245553      -9.53721025       2.58462525
C       -3.15083510      -8.74669690       2.76162350
C       -3.22847932      -7.35962458       2.63602187
H        0.54018041      -0.93065424      -2.51196055
H       -0.90784993      -2.31108267      -3.97161807
H       -3.16193664      -2.99999312      -3.18939942
H       -2.49263480      -0.96886234       0.55477085
H       -3.58296015      -3.43363518       0.78573901
H       -6.82707858      -1.81454100       0.07983900
H      -11.10745237      -2.10435592       1.50272590
H      -10.52415367      -3.65797631       0.87579836
H      -11.10167923      -3.80508525       3.32338670
H       -9.93511911      -2.51839711       3.68995090
H       -6.87909817      -5.46631982       3.44563123
H       -6.52638886      -7.13215457       1.77895342
H       -6.37722256      -9.55146647       2.09363491
H       -4.22768996     -10.61789135       2.69174234
H       -2.33250370      -6.75685095       2.77481925
C       -1.88773585      -9.36735935       3.06651432
C       -0.82989023      -9.88716414       3.32186038
Br       0.88055667     -10.72764454       3.73473337
C       -0.88187690       0.88187690       0.88187690
C       -0.32876303       1.51056040       1.99992766
C       -1.13504179       2.28956656       2.83152813
C       -2.49290571       2.42727733       2.54952113
C       -3.03567482       1.80315016       1.42023845
C       -2.23372876       1.02818093       0.57730106
C       -4.49546955       1.88944198       1.19503650
O       -5.24208495       1.65704078       2.13801666
N       -4.87028067       2.29760813      -0.06829403
C       -6.19958337       2.35290039      -0.55590872
C       -7.19257707       1.51691368      -0.03184692
C       -8.48767512       1.54751312      -0.54430191
O       -9.39960823       0.70781925       0.04086284
C      -10.73941852       1.09832942      -0.26967254
C      -10.88603424       1.37493641      -1.75696053
O      -10.04925336       2.46278413      -2.17186551
C       -8.79770121       2.38451167      -1.61739445
C       -7.81868354       3.21447989      -2.16245530
C       -6.52647751       3.22960488      -1.61659044
C       -5.49170294       4.16631458      -2.13453559
O       -4.33720875       3.73983422      -2.22499767
C       -5.75267769       5.59945354      -2.47809578
C       -6.95036008       6.26821264      -2.18969193
C       -7.11795753       7.61119955      -2.54723240
C       -6.07782894       8.31182793      -3.15461634
C       -4.86916736       7.66725267      -3.40051152
C       -4.70434237       6.32126381      -3.07352415
H        0.72527449       1.38859035       2.23911852
H       -0.71026370       2.77243068       3.70785630
H       -3.13206511       3.00810357       3.21116049
H       -2.66855056       0.51289444      -0.27471871
H       -4.16283275       2.73361504      -0.66559148
H       -6.97478214       0.81660117       0.77039727
H      -11.40102230       0.27900428       0.02905580
H      -10.99449920       1.97881560       0.33301683
H      -11.92090446       1.64864269      -1.98616937
H      -10.62441300       0.49350116      -2.35434883
H       -8.07888115       3.83607354      -3.01516793
H       -7.77203142       5.78108157      -1.67352298
H       -8.05930614       8.11524133      -2.33949335
H       -6.21312299       9.35821779      -3.41750180
H       -3.75090627       5.83372818      -3.27009905
C       -3.77692004       8.39929379      -3.98763296
C       -2.86216291       9.01237824      -4.47934716
Br      -1.38307799      10.00368394      -5.27440743
C        0.88187690      -0.88187690       0.88187690
C        2.06489035      -1.41236525       0.36199549
C        2.85896332      -2.24809657       1.14907660
C        2.46165078      -2.56009882       2.44795456
C        1.28060772      -2.01421071       2.96424501
C        0.48378233      -1.16954030       2.18588811
C        0.83482963      -2.43391707       4.31120133
O        0.83253891      -3.63035162       4.57425186
N        0.52373490      -1.40271957       5.17314030
C       -0.02525193      -1.55077964       6.47104733
C       -0.79580469      -2.67168339       6.80176514
C       -1.36680461      -2.79077713       8.06691381
O       -2.09048756      -3.92948798       8.30928991
C       -2.27954064      -4.13637009       9.71124595
C       -2.73460800      -2.85271139      10.38590674
O       -1.74682944      -1.82031566      10.26668575
C       -1.21070764      -1.76977925       9.00574682
C       -0.45847404      -0.63880621       8.69037596
C        0.16523695      -0.53626193       7.43799306
C        1.03636860       0.62670437       7.11381771
O        0.96643714       1.08421804       5.96982620
C        2.03290327       1.21920215       8.06033433
C        2.38321468       0.64402018       9.28968629
C        3.32374368       1.26314603      10.12132704
C        3.95617801       2.43658011       9.71544263
C        3.64818536       2.98729118       8.47501433
C        2.69097444       2.39213443       7.65324202
H        2.36929991      -1.19181308      -0.65867861
H        3.77524699      -2.67056546       0.74473823
H        3.06088854      -3.23524898       3.05519166
H       -0.45243625      -0.78152555       2.57763698
H        0.83902465      -0.45929416       4.93253751
H       -0.98010298      -3.46259121       6.07929235
H       -3.03854932      -4.91588027       9.83175144
H       -1.33977083      -4.50733821      10.13876424
H       -2.89979209      -3.02964026      11.45352960
H       -3.67098834      -2.48368368       9.95086998
H       -0.37551756       0.15392221       9.42922653
H        1.95601623      -0.29480725       9.62876653
H        3.57242041       0.82098411      11.08361782
H        4.69447647       2.90354203      10.36290454
H        2.46472329       2.83481256       6.68462467
C        4.33126795       4.17524247       8.03255539
C        4.90334963       5.17015167       7.66199603
Br       5.82835731       6.77883570       7.06283288
