194
Properties=species:S:1:pos:R:3 pbc="F F F"
C        1.79178092       1.79178092      -1.79178092
C        3.17950311       1.75219644      -1.63726361
C        3.99117880       2.58057785      -2.41409190
C        3.41240459       3.45370219      -3.33330947
C        2.02156004       3.47774687      -3.48946861
C        1.20175078       2.64546419      -2.72170785
C        1.42776988       4.47743055      -4.40445966
O        1.80833194       5.63874768      -4.31977484
N        0.53348685       3.97106665      -5.32475334
C       -0.24154796       4.73860963      -6.22922545
C       -0.58894189       6.06216192      -5.93413588
C       -1.38577019       6.79746180      -6.80890679
O       -1.66143997       8.09098672      -6.44845565
C       -2.12254941       8.85463179      -7.56570510
C       -3.19034078       8.09169166      -8.33237132
O       -2.67286538       6.86902407      -8.87372536
C       -1.88217185       6.20537289      -7.97132946
C       -1.55890233       4.88354703      -8.27577551
C       -0.71244553       4.15378046      -7.42786908
C       -0.29347254       2.76872992      -7.77793662
O       -0.22522213       1.94894697      -6.85803253
C        0.11557240       2.33685147      -9.15132365
C        0.31788290       3.21895697     -10.22175299
C        0.69763391       2.73487494     -11.47912791
C        0.92257957       1.37292209     -11.66925094
C        0.76999420       0.49711743     -10.59850895
Br       1.12981321      -1.34358225     -10.83570746
C        0.36376835       0.96809128      -9.34993448
H        3.63669805       1.08999435      -0.90545405
H        5.07084056       2.55956460      -2.28985759
H        4.03822127       4.12329997      -3.91952000
H        0.12076928       2.69756371      -2.81810537
H        0.52026317       2.95969073      -5.48061450
H       -0.26189563       6.53942895      -5.01395933
H       -2.53304761       9.79282838      -7.17901369
H       -1.26203316       9.09620176      -8.20187510
H       -3.55297730       8.69604268      -9.17002447
H       -4.04512392       7.84810198      -7.69029934
H       -1.98087050       4.43772046      -9.17264887
H        0.20399873       4.29314938     -10.11215398
H        0.83029532       3.42496529     -12.30950559
H        1.22929703       1.00778906     -12.64646496
H        0.25248076       0.26920667      -8.52256005
C       -1.79178092      -1.79178092      -1.79178092
C       -1.67175936      -3.18139881      -1.71580498
C       -2.44821398      -3.99429829      -2.54333629
C       -3.33238170      -3.41526381      -3.45177073
C       -3.45433486      -2.02211180      -3.51232885
C       -2.68683831      -1.20077570      -2.68130881
C       -4.33093525      -1.43122241      -4.54750243
O       -4.22812492      -1.84157684      -5.69715270
N       -5.24106023      -0.50355623      -4.08469039
C       -6.10824343       0.27382685      -4.89187055
C       -5.77376643       0.58214512      -6.21573460
C       -6.61149906       1.38138751      -6.99048685
O       -6.21413509       1.61720721      -8.28107451
C       -7.30163919       2.08594920      -9.08209749
C       -8.06008199       3.18959582      -8.36323603
O       -8.64241003       2.71465971      -7.14213374
C       -7.77523250       1.91916957      -6.43846757
C       -8.11843805       1.63514074      -5.11712290
C       -7.30862147       0.78679736      -4.34737990
C       -7.70122040       0.40971918      -2.96169279
O       -6.80279494       0.33961537      -2.11857779
C       -9.09386641       0.04367378      -2.55355489
C      -10.14779023      -0.15458738      -3.45621525
C      -11.42501306      -0.49282878      -2.99379493
C      -11.65253391      -0.68031446      -1.63190424
C      -10.59934870      -0.53190951      -0.73436236
Br     -10.88844825      -0.84153440       1.10804423
C       -9.33059144      -0.16668483      -1.18451783
H       -0.96699220      -3.63959690      -1.02555734
H       -2.35058955      -5.07576559      -2.49390761
H       -3.91758353      -4.04306950      -4.12038822
H       -2.75587773      -0.11939496      -2.76116566
H       -5.42033587      -0.46227183      -3.07796069
H       -4.85076062       0.22209788      -6.66282991
H       -6.88316691       2.46447406     -10.02010162
H       -7.95251548       1.23507930      -9.31860752
H       -8.87427621       3.55717783      -8.99599147
H       -7.40349295       4.03464558      -8.12443003
H       -9.01512360       2.08874860      -4.70312384
H      -10.01020467      -0.06926182      -4.52983559
H      -12.24186431      -0.62250274      -3.70039914
H      -12.64519160      -0.95503214      -1.28332731
H       -8.51746445      -0.05808965      -0.46869337
C       -1.79178092       1.79178092       1.79178092
C       -1.57417401       1.82356916       3.17121999
C       -2.39779820       2.59901078       3.98903958
C       -3.44285373       3.32977571       3.42678680
C       -3.64572331       3.30097727       2.04207493
C       -2.82035879       2.53386122       1.21470280
C       -4.81660869       4.01116991       1.48188149
O       -5.90604188       3.84421745       2.01659512
N       -4.53908552       4.85988588       0.43033544
C       -5.50067246       5.56281534      -0.33720068
C       -6.80591079       5.07593048      -0.47448537
C       -7.73438883       5.75047195      -1.26426238
O       -8.99339886       5.21191442      -1.32731088
C       -9.94277730       6.16547051      -1.81046033
C       -9.41249563       6.86975635      -3.04852978
O       -8.21903257       7.60967237      -2.75882089
C       -7.35825670       6.89893681      -1.96266301
C       -6.05868660       7.39172058      -1.84998698
C       -5.13345981       6.74942588      -1.01368167
C       -3.76657361       7.30675029      -0.82012990
O       -2.83232946       6.50319013      -0.75376222
C       -3.47202557       8.76179240      -0.63007044
C       -4.45619445       9.74148361      -0.43908520
C       -4.09857218      11.08443397      -0.27136939
C       -2.75593263      11.45648220      -0.24766223
C       -1.77224538      10.48219326      -0.38881806
Br       0.05128572      10.97277922      -0.29955508
C       -2.12112069       9.14598596      -0.58531254
H       -0.77500897       1.23756574       3.61957173
H       -2.23761522       2.61866594       5.06398159
H       -4.10667253       3.91157593       4.06279278
H       -3.00771247       2.48306283       0.14566306
H       -3.56455634       5.12731079       0.26870126
H       -7.11963127       4.15730045       0.01456094
H      -10.86381105       5.62424893      -2.04926551
H      -10.16462393       6.87576095      -1.00434117
H      -10.15755641       7.57885632      -3.42332288
H       -9.18724099       6.15462480      -3.84858839
H       -5.78377190       8.27152774      -2.42580081
H       -5.51311005       9.49600811      -0.39981607
H       -4.87052580      11.84061895      -0.14637855
H       -2.48759214      12.50043424      -0.10447534
H       -1.33844988       8.39652852      -0.69073093
C        1.79178092      -1.79178092       1.79178092
C        3.17561545      -1.60147221       1.79187550
C        3.99246492      -2.42593244       2.56745120
C        3.42451105      -3.44476647       3.33013872
C        2.03575772      -3.62017817       3.33283962
C        1.20956198      -2.79362082       2.56574002
C        1.46695791      -4.76524033       4.07746186
O        1.97653645      -5.86833287       3.92198513
N        0.43845102      -4.44981550       4.94104032
C       -0.33361474      -5.38162186       5.67828000
C       -0.50649227      -6.69320009       5.22064809
C       -1.30070798      -7.59202350       5.92928288
O       -1.39950733      -8.85991237       5.41759736
C       -1.88200029      -9.78029658       6.39949119
C       -3.09487072      -9.21130698       7.11728594
O       -2.76673436      -8.00952996       7.82708844
C       -1.96821014      -7.17922648       7.08351416
C       -1.81992451      -5.87270087       7.54764384
C       -0.97861260      -4.97742851       6.87038810
C       -0.74684925      -3.60396915       7.39607411
O       -0.67824374      -2.68733427       6.57266685
C       -0.52167274      -3.28458976       8.84083050
C       -0.33046105      -4.25283902       9.83621489
C       -0.12863374      -3.87217715      11.16809335
C       -0.07086613      -2.52319219      11.51242654
C       -0.21216880      -1.55632316      10.52146621
Br      -0.07696581       0.27438322      10.97328745
C       -0.44245416      -1.92752735       9.19672091
H        3.62777098      -0.82326789       1.18110757
H        5.07054313      -2.28711932       2.56260030
H        4.05887283      -4.10964650       3.91252192
H        0.13621763      -2.96032900       2.53989173
H        0.30155755      -3.46712301       5.19188784
H       -0.04238757      -7.03483838       4.29904184
H       -2.14985376     -10.70684970       5.88179852
H       -1.06625662     -10.00427233       7.09802799
H       -3.46994229      -9.93447802       7.84855412
H       -3.90458654      -8.98414265       6.41372129
H       -2.37231330      -5.56886972       8.43294241
H       -0.31707060      -5.31498120       9.61139149
H       -0.00370275      -4.63138558      11.93708337
H        0.09864137      -2.23719642      12.54771326
H       -0.54747274      -1.15786795       8.43385226
C       -0.00445707       0.01189536      -1.78238275
H       -0.66409135       0.67374010      -2.43557963
H        0.65740317      -0.63156657      -2.45157240
C       -0.90989263      -0.90692880      -0.91072765
C        0.90977584       0.90977584      -0.90977584
C       -0.00465871       1.77757030       0.00794375
H       -0.66225468       2.44313916      -0.64384735
H        0.64322798       2.43503045       0.67728295
C       -1.78241447       0.00034974      -0.00472694
H       -2.45427497      -0.65498947       0.64260836
H       -2.43311707       0.67328779      -0.65473579
C       -0.91132561       0.90220522       0.91563759
C       -0.01476271      -0.02253852       1.78660255
H       -0.67934791      -0.69751639       2.42135241
H        0.63392994       0.61504881       2.47327442
C        0.01484550      -1.77751727      -0.01636693
H        0.67870853      -2.42144646      -0.68295456
H       -0.62264859      -2.45592969       0.64226336
C        1.78714474       0.01002794       0.00389507
H        2.44202412       0.67113390       0.66197326
H        2.45385902      -0.65136977      -0.64189061
C        0.91606151      -0.90478549       0.90901405
