141
Properties=species:S:1:pos:R:3 pbc="F F F"
C        0.00000000       0.00000000       0.00000000
C        0.88227272       0.88227272      -0.88227272
C        1.40801898       2.06815012      -0.36452443
C        2.18822827       2.88994275      -1.17705903
C        2.42728175       2.50785060      -2.49535047
O        3.14636580       3.39958187      -3.30959913
C        3.27693165       3.16740465      -4.67497812
O        3.63097065       4.05958430      -5.43958208
C        2.94575262       1.81112231      -5.16460623
C        2.27278355       0.95306502      -4.37914213
C        1.93382666       1.31385723      -3.01244269
C        1.14802179       0.49537913      -2.19853860
C        3.23309334       1.35524407      -6.55934615
O        2.54414925       0.47596620      -7.08216139
C        4.34372134       1.98488910      -7.32869403
C        4.16680283       2.09862122      -8.65513100
C        5.17824590       2.74274016      -9.47629447
C        5.05393444       2.84451982     -10.86334221
C        6.02726463       3.53087081     -11.59439232
C        7.11529938       4.12759182     -10.95363246
C        7.24827118       4.01664909      -9.56971199
C        6.28378531       3.31349912      -8.85142578
O        6.48256056       3.16593987      -7.46688399
C        5.61105330       2.40482748      -6.69629135
O        5.88723763       2.08109543      -5.54486329
H        1.20631274       2.36324994       0.66228933
H        2.59179091       3.82197778      -0.79177891
H        1.97703719      -0.03212705      -4.73085071
H        0.73678989      -0.43424524      -2.58518037
H        3.25688099       1.75610529      -9.14099286
H        4.20619346       2.39527766     -11.37526239
H        7.86456821       4.67198022     -11.52329091
H        8.09504865       4.46700209      -9.06014458
C        5.90522935       3.62587085     -13.02606350
C        5.80302479       3.70543339     -14.22508812
Br       5.63776867       3.83407928     -16.16380952
C       -0.88227272      -0.88227272      -0.88227272
C       -1.62823355      -0.30186491      -1.91059507
C       -2.45734781      -1.10048417      -2.69739807
C       -2.52397913      -2.46783635      -2.43866734
O       -3.43215906      -3.22827996      -3.19510779
C       -3.67801923      -4.56085328      -2.88044192
O       -4.66217569      -5.14616458      -3.32179676
C       -2.71919590      -5.22907033      -1.97321492
C       -1.83976302      -4.50235313      -1.26287455
C       -1.76223894      -3.06126600      -1.43662165
C       -0.93704329      -2.25857010      -0.64632613
C       -2.73451193      -6.70121174      -1.71195990
O       -2.30750838      -7.14949482      -0.64527364
C       -3.29112308      -7.62819872      -2.73798267
C       -3.91241265      -8.72751479      -2.28062760
C       -4.52589146      -9.66191440      -3.20947466
C       -5.14465101     -10.83752986      -2.77961561
C       -5.77361601     -11.66656511      -3.71234664
C       -5.80263571     -11.32713577      -5.06675218
C       -5.17454819     -10.15976595      -5.50031812
C       -4.53279137      -9.34965091      -4.56626793
O       -3.85476745      -8.21459221      -5.04602476
C       -3.11848642      -7.40552251      -4.18816320
O       -2.34569674      -6.55256791      -4.61493170
H       -1.57804315       0.76806093      -2.09729114
H       -3.05382983      -0.66031107      -3.49140671
H       -1.15597440      -4.96447465      -0.55531180
H       -0.34517372      -2.69661024       0.15405893
H       -4.01088783      -8.92644891      -1.21664240
H       -5.14066505     -11.10936927      -1.72669918
H       -6.30368223     -11.96742301      -5.78873410
H       -5.18061892      -9.88941195      -6.55216445
C       -6.40164593     -12.88481389      -3.27070388
C       -6.92762099     -13.90509724      -2.90082807
Br      -7.77807818     -15.55480913      -2.30277016
C       -0.88227272       0.88227272       0.88227272
C       -1.16057428       0.48736150       2.19275775
C       -1.99009933       1.27541466       2.98971606
C       -2.52643140       2.44613037       2.45792105
O       -3.42442322       3.17156522       3.25955836
C       -4.12873862       4.25212213       2.73845368
O       -5.11584579       4.70245691       3.31183433
C       -3.65255920       4.81373166       1.45519030
C       -2.78085840       4.12692243       0.69720987
C       -2.23148334       2.86467927       1.16396398
C       -1.40514237       2.07089821       0.36589895
C       -4.17385487       6.09233112       0.88149757
O       -4.15916134       6.28043334      -0.33731783
C       -4.73565043       7.13413168       1.78752237
C       -5.74893080       7.86972735       1.30189689
C       -6.38779986       8.87584488       2.13363579
C       -7.41563793       9.69093987       1.65521867
C       -8.03592140      10.59725026       2.51935611
C       -7.64981214      10.68828839       3.85842312
C       -6.61500508       9.88407942       4.33554776
C       -5.98894267       8.99779225       3.46197529
O       -4.90720610       8.24892511       3.95925320
C       -4.17661466       7.40837872       3.12717876
O       -3.10508445       6.92598625       3.48212566
H       -0.74630987      -0.43393364       2.59489712
H       -2.22636848       0.97318277       4.00599636
H       -2.45074145       4.49569333      -0.27067394
H       -1.17394931       2.36816468      -0.65438896
H       -6.14382822       7.70784780       0.30230312
H       -7.73539871       9.62328610       0.61804869
H       -8.14263760      11.38525105       4.53195069
H       -6.29786855       9.95230491       5.37202186
C       -9.08798438      11.44607285       2.02310648
C       -9.96908712      12.15696177       1.60749741
Br     -11.39375574      13.30640903       0.93549270
C        0.88227272      -0.88227272       0.88227272
C        1.29507845      -2.13168302       0.41393206
C        2.07483906      -2.95123803       1.22915297
C        2.42678205      -2.50316914       2.50053163
O        3.14134909      -3.38809472       3.32610300
C        3.37893712      -3.07891839       4.66145891
O        3.72664177      -3.94263455       5.46086070
C        3.16878517      -1.67485908       5.07783690
C        2.49994670      -0.82476432       4.28027968
C        2.04659905      -1.24791496       2.96561257
C        1.26096316      -0.43136685       2.14960951
C        3.57869766      -1.15174247       6.41724343
O        2.98423766      -0.19618345       6.92185574
C        4.69673270      -1.80519386       7.15537791
C        4.60351374      -1.82200000       8.49504130
C        5.62539605      -2.47982287       9.29206161
C        5.58943635      -2.48444775      10.68791238
C        6.56455830      -3.18746256      11.40050690
C        7.56633749      -3.89632672      10.73385945
C        7.61171556      -3.88296831       9.33994839
C        6.64733614      -3.16301651       8.63835756
O        6.76051956      -3.11771335       7.23715150
C        5.88884747      -2.34969984       6.47362482
O        6.10616063      -2.11941760       5.28761813
H        1.00567000      -2.47712865      -0.57552530
H        2.39114966      -3.93117365       0.88322429
H        2.29208441       0.19863204       4.58230848
H        0.93695579       0.54677657       2.49754581
H        3.75236818      -1.38820087       9.01341009
H        4.80876421      -1.94695478      11.22101451
H        8.31643401      -4.45303440      11.29037092
H        8.39151762      -4.42135207       8.80932563
C        6.53432969      -3.18265246      12.84018155
C        6.50901323      -3.17862400      14.04590907
Br       6.46807866      -3.17211032      15.99546849
