154
Properties=species:S:1:pos:R:3 pbc="F F F"
C        1.79217674       1.79217674      -1.79217674
C        2.31792301       2.97805415      -1.27442845
C        3.09813229       3.79984677      -2.08696306
C        3.33718577       3.41775462      -3.40525449
O        4.05626983       4.30948589      -4.21950316
C        4.18683568       4.07730867      -5.58488214
O        4.54087467       4.96948833      -6.34948610
C        3.85565664       2.72102633      -6.07451026
C        3.18268757       1.86296904      -5.28904616
C        2.84373068       2.22376126      -3.92234672
C        2.05792582       1.40528315      -3.10844263
C        4.14299737       2.26514810      -7.46925017
O        3.45405328       1.38587023      -7.99206542
C        5.25362537       2.89479313      -8.23859805
C        5.07670685       3.00852524      -9.56503503
C        6.08814993       3.65264418     -10.38619850
C        5.96383846       3.75442385     -11.77324623
C        6.93716866       4.44077483     -12.50429634
Br       6.77690522       4.56553411     -14.38444553
C        8.02520341       5.03749584     -11.86353649
C        8.15817520       4.92655312     -10.47961602
C        7.19368934       4.22340315      -9.76132980
O        7.39246458       4.07584389      -8.37678801
C        6.52095733       3.31473151      -7.60619537
O        6.79714165       2.99099946      -6.45476732
H        2.11621676       3.27315397      -0.24761469
H        3.50169494       4.73188181      -1.70168294
H        2.88694121       0.87777698      -5.64075473
H        1.64669392       0.47565879      -3.49508440
H        4.16678501       2.66600932     -10.05089689
H        5.11609748       3.30518168     -12.28516641
H        8.77447224       5.58188425     -12.43319493
H        9.00495267       5.37690612      -9.97004861
C       -1.79217674      -1.79217674      -1.79217674
C       -2.44261166      -1.23322005      -2.89457389
C       -3.27229057      -2.02940542      -3.68324613
C       -3.43534217      -3.37281475      -3.35203797
O       -4.34324558      -4.12466043      -4.11735286
C       -4.68599427      -5.41991503      -3.74311719
O       -5.67693679      -5.97402850      -4.20888381
C       -3.82183746      -6.08568717      -2.74366860
C       -2.94199804      -5.36859173      -2.02411300
C       -2.76847609      -3.94721764      -2.27414493
C       -1.94265552      -3.14653835      -1.48245772
C       -3.94017625      -7.53628060      -2.40093879
O       -3.60185853      -7.94321720      -1.28691318
C       -4.49244569      -8.49016061      -3.40441024
C       -5.20342773      -9.52315499      -2.92368439
C       -5.81831330     -10.47537690      -3.83330240
C       -6.52979464     -11.58620316      -3.37551074
C       -7.15357448     -12.43277630      -4.29588906
Br      -8.10429724     -13.94575523      -3.67683238
C       -7.08551507     -12.17409444      -5.66662622
C       -6.36502235     -11.07223578      -6.12708620
C       -5.72970366     -10.24516299      -5.20355564
O       -4.95876935      -9.18110087      -5.70522627
C       -4.22500079      -8.36498692      -4.85189650
O       -3.37954089      -7.58425149      -5.27911604
H       -2.31785902      -0.18097387      -3.13815254
H       -3.79542224      -1.60460889      -4.53522855
H       -2.32828295      -5.82538591      -1.25180406
H       -1.42435340      -3.56856580      -0.62451790
H       -5.37369160      -9.65202587      -1.85797375
H       -6.60169268     -11.79419149      -2.31056140
H       -7.58241397     -12.82715872      -6.37997872
H       -6.29535161     -10.86554569      -7.19101009
C       -1.79217674       1.79217674       1.79217674
C       -2.13292514       1.36119859       3.07628188
C       -2.96272571       2.15047323       3.87174318
C       -3.43666641       3.35859478       3.36493370
O       -4.33725879       4.08771001       4.16029007
C       -4.98258483       5.21164940       3.65479226
O       -5.97354736       5.67751510       4.20878664
C       -4.43926359       5.80077925       2.41115040
C       -3.56516554       5.10965131       1.65988593
C       -3.07906110       3.81196895       2.09880861
C       -2.25260438       3.01713192       1.30191529
C       -4.89276828       7.11758275       1.86704461
O       -4.82608775       7.34853575       0.65736542
C       -5.45016004       8.14641677       2.79043973
C       -6.41771078       8.93605971       2.29649662
C       -7.05059204       9.93478123       3.14161933
C       -8.03010188      10.80410017       2.65730649
C       -8.64919987      11.70129693       3.53174303
Br      -9.96486104      12.88918853       2.87283528
C       -8.31008163      11.72991915       4.88623495
C       -7.32317424      10.87125916       5.36991094
C       -6.69723750       9.99418218       4.48700261
O       -5.66222981       9.18832549       4.99454118
C       -4.93180659       8.35155976       4.15851785
O       -3.89216233       7.81729895       4.53344715
H       -1.76714170       0.41134247       3.45850125
H       -3.24725109       1.82102554       4.86698305
H       -3.18633211       5.50033047       0.71881034
H       -1.97317729       3.34195287       0.30230694
H       -6.78075143       8.82485996       1.27807983
H       -8.31333594      10.78555555       1.60755408
H       -8.80230853      12.42013879       5.56710410
H       -7.04251461      10.89049713       6.41889565
C        1.79217674      -1.79217674       1.79217674
C        1.72722144      -3.18127330       1.66191086
C        2.50885855      -3.98919875       2.48688483
C        3.34209477      -3.38940775       3.42869237
O        4.05172211      -4.23418366       4.29935311
C        4.76749489      -3.71045505       5.37107656
O        5.13695197      -4.42528784       6.29760929
C        5.03853247      -2.25606655       5.35659421
C        4.37157497      -1.45119650       4.51193131
C        3.43734848      -2.00608798       3.54640219
C        2.64935774      -1.19924011       2.72305374
C        5.96435224      -1.58973108       6.32331232
O        5.80464153      -0.40412702       6.62322037
C        7.07131740      -2.37090297       6.94479618
C        7.40771777      -2.04029427       8.20225508
C        8.44408518      -2.78099943       8.90190799
C        8.85380437      -2.44414182      10.19356236
C        9.80971800      -3.23141437      10.84110747
Br      10.37592038      -2.76645788      12.58450660
C       10.35017799      -4.35828162      10.21777612
C        9.95178632      -4.68965655       8.92290146
C        9.01323559      -3.88764910       8.27753760
O        8.68232893      -4.21297448       6.94979308
C        7.82056122      -3.41094158       6.21038140
O        7.69738180      -3.54870038       4.99682624
H        1.06528361      -3.64013400       0.93156781
H        2.45786678      -5.07126658       2.40612632
H        4.51845151      -0.37407325       4.51294816
H        2.69349728      -0.11589646       2.80804335
H        6.89346001      -1.24891215       8.74131905
H        8.43343131      -1.57647479      10.69653947
H       11.08439579      -4.97652632      10.72862930
H       10.37193843      -5.55727930       8.42268967
C       -0.00445707       0.01189536      -1.78238275
H       -0.66409135       0.67374010      -2.43557963
H        0.65740317      -0.63156657      -2.45157240
C       -0.90989263      -0.90692880      -0.91072765
C        0.90977584       0.90977584      -0.90977584
C       -0.00465871       1.77757030       0.00794375
H       -0.66225468       2.44313916      -0.64384735
H        0.64322798       2.43503045       0.67728295
C       -1.78241447       0.00034974      -0.00472694
H       -2.45427497      -0.65498947       0.64260836
H       -2.43311707       0.67328779      -0.65473579
C       -0.91132561       0.90220522       0.91563759
C       -0.01476271      -0.02253852       1.78660255
H       -0.67934791      -0.69751639       2.42135241
H        0.63392994       0.61504881       2.47327442
C        0.01484550      -1.77751727      -0.01636693
H        0.67870853      -2.42144646      -0.68295456
H       -0.62264859      -2.45592969       0.64226336
C        1.78714474       0.01002794       0.00389507
H        2.44202412       0.67113390       0.66197326
H        2.45385902      -0.65136977      -0.64189061
C        0.91606151      -0.90478549       0.90901405
