181
Properties=species:S:1:pos:R:3 pbc="F F F"
C        0.00000000       0.00000000       0.00000000
C        0.88155307       0.88155307      -0.88155307
C        2.24641192       0.61511902      -0.97775616
C        3.05523219       1.41874889      -1.78623107
C        2.49144580       2.47214839      -2.52005115
C        1.12414184       2.74814170      -2.39435869
C        0.31814064       1.94986060      -1.57780928
C        3.31477258       3.34424198      -3.40300608
O        3.02045816       4.53492563      -3.50088348
C        4.51480557       2.82152280      -4.12233849
C        4.51064564       1.49550086      -4.58439560
C        5.65891953       0.95197320      -5.14742056
O        5.58451756      -0.35596929      -5.55035656
C        6.71128209      -0.72296788      -6.35721515
C        8.00042121      -0.20426196      -5.74251133
O        8.00218514       1.22763684      -5.72786343
C        6.81605104       1.72340955      -5.24906029
C        6.80301494       3.06734873      -4.86951582
C        5.64973314       3.64427250      -4.32354223
N        5.57385004       5.01847923      -3.97549217
C        6.54282516       5.99145049      -4.12462310
O        7.67753032       5.82719535      -4.55621670
C        6.13309281       7.37632162      -3.74445890
C        5.17874258       7.63339315      -2.74992073
C        4.84048809       8.95087508      -2.42753818
C        5.45551110      10.01434422      -3.08904304
C        6.41342858       9.75816119      -4.06851326
C        6.75853360       8.44860652      -4.39669162
H        2.69078791      -0.21017930      -0.42607497
H        4.12188437       1.21047102      -1.82327779
H        0.68113966       3.58317640      -2.93396862
H       -0.74315187       2.16937872      -1.49267215
H        3.62260002       0.87316624      -4.51111832
H        6.73249621      -1.81547756      -6.41827953
H        6.55986174      -0.32495893      -7.36819926
H        8.86263223      -0.53293150      -6.33071914
H        8.12952128      -0.56558920      -4.71431122
H        7.71700689       3.63603041      -5.00746023
H        4.63734615       5.32334905      -3.70378160
H        4.70278368       6.82637086      -2.19860476
H        4.10073527       9.14848695      -1.65495803
H        5.18722004      11.03561528      -2.83034141
H        7.50983980       8.25405186      -5.15945298
C        7.05183657      10.85687173      -4.74591298
C        7.58650327      11.77704181      -5.31323525
Br       8.45101409      13.26487900      -6.23054738
C       -0.88155307      -0.88155307      -0.88155307
C       -0.35349932      -2.04324789      -1.44253988
C       -1.15905255      -2.85356176      -2.24759782
C       -2.50161395      -2.51432765      -2.46770374
C       -3.01399167      -1.33059095      -1.92205962
C       -2.20459126      -0.51595490      -1.12526436
C       -3.39773093      -3.35631009      -3.30797963
O       -4.25716524      -2.80475987      -3.99434217
C       -3.24009550      -4.83985341      -3.37871795
C       -2.81763514      -5.53736548      -2.23554148
C       -2.54813130      -6.89843597      -2.31174602
O       -2.11493709      -7.50333067      -1.16063707
C       -2.13683819      -8.93210009      -1.27659109
C       -1.55794374      -9.36888397      -2.61184287
O       -2.37659479      -8.89442274      -3.68666789
C       -2.69364540      -7.56949977      -3.52537572
C       -3.19370728      -6.90114024      -4.64503197
C       -3.49693739      -5.53531823      -4.58529224
N       -4.05856977      -4.82842040      -5.68083126
C       -4.41778520      -5.32077579      -6.92033775
O       -4.27447411      -6.47174531      -7.31472294
C       -5.07057310      -4.34253510      -7.84076513
C       -4.78855745      -2.96955000      -7.80394900
C       -5.42208791      -2.10016448      -8.69664895
C       -6.33180582      -2.59579006      -9.63130248
C       -6.60192307      -3.96241258      -9.67576738
C       -5.97507996      -4.83768576      -8.79106602
H        0.68186834      -2.32449191      -1.26406001
H       -0.71786763      -3.73934707      -2.69841847
H       -4.04554369      -1.04019673      -2.11254426
H       -2.61464061       0.39737821      -0.70163659
H       -2.69192602      -5.03498057      -1.27997799
H       -1.54210731      -9.33987054      -0.45332031
H       -3.17178081      -9.27529852      -1.15602274
H       -1.52516144     -10.46086992      -2.67438851
H       -0.53869876      -8.98706984      -2.75247470
H       -3.32812203      -7.47789680      -5.55447869
H       -4.33808804      -3.87222944      -5.45415932
H       -4.06440030      -2.55794106      -7.10541794
H       -5.20127669      -1.03548000      -8.66742357
H       -6.81831488      -1.91222292     -10.32263894
H       -6.18656284      -5.90430546      -8.83247633
C       -7.53630793      -4.47321142     -10.64510194
C       -8.31885526      -4.90100545     -11.45691962
Br      -9.58416809      -5.59271221     -12.76956016
C       -0.88155307       0.88155307       0.88155307
C       -0.41392145       2.12671733       1.29864832
C       -1.21993202       2.93695390       2.10332622
C       -2.50546089       2.51126377       2.46692068
C       -2.95435913       1.24682279       2.06546032
C       -2.14348403       0.43332929       1.26899720
C       -3.40133018       3.34873496       3.31195551
O       -4.15098645       2.79204863       4.11323219
C       -3.36920173       4.84062562       3.24883951
C       -3.10301422       5.46697255       2.02055533
C       -2.94863389       6.84675435       1.96292505
O       -2.66430686       7.38131217       0.73328580
C       -2.80199159       8.80831821       0.73521957
C       -2.15793476       9.40571732       1.97501850
O       -2.84255921       8.96291974       3.15220647
C       -3.05417309       7.60773651       3.12661128
C       -3.40186121       7.00201999       4.33599829
C       -3.58798464       5.61624689       4.41331634
N       -3.99536904       4.96519084       5.60726156
C       -4.29533404       5.53378733       6.82977737
O       -4.22219008       6.72269550       7.11605678
C       -4.78354132       4.59062006       7.87971195
C       -4.38610820       3.24689800       7.92905025
C       -4.86697403       2.41093164       8.94099567
C       -5.73837314       2.91169014       9.90883508
C       -6.12281836       4.25072423       9.86656044
C       -5.64846411       5.09269891       8.86266872
H        0.57503817       2.47372947       1.00799228
H       -0.82323401       3.89151293       2.44088624
H       -3.93776068       0.89208564       2.36843836
H       -2.50466156      -0.54368853       0.95792596
H       -3.01113738       4.89450194       1.10124526
H       -2.31357859       9.18891591      -0.16719633
H       -3.86937774       9.05511752       0.67860680
H       -2.21609739      10.49805893       1.94626355
H       -1.10113203       9.12107158       2.05603970
H       -3.51261864       7.64358791       5.20429099
H       -4.20731758       3.97340708       5.48375213
H       -3.68729219       2.83531218       7.20515492
H       -4.55673164       1.36905089       8.97839773
H       -6.10578101       2.25440887      10.69298685
H       -5.94863249       6.13832114       8.83639101
C       -7.01724514       4.76760162      10.86977453
C       -7.76632756       5.20048644      11.70996633
Br      -8.97753049       5.90042457      13.06848541
C        0.88155307      -0.88155307       0.88155307
C        2.11164912      -0.40050672       1.32713126
C        2.91937153      -1.20427901       2.13656160
C        2.48194630      -2.47936051       2.52233854
C        1.25699111      -2.96341165       2.04623947
C        0.45462793      -2.16244551       1.22873708
C        3.30536798      -3.36272198       3.39393068
O        3.27197688      -4.57825086       3.20603953
C        4.20736434      -2.80542993       4.44587259
C        3.82315858      -1.63958045       5.12780308
C        4.69926624      -1.03679551       6.02225153
O        4.26254937       0.11222559       6.62858105
C        5.11332830       0.48753699       7.71973806
C        6.57530832       0.36188572       7.32524798
O        6.89979332      -1.00582528       7.05206682
C        5.96148448      -1.58856879       6.23846762
C        6.31827145      -2.79314226       5.62846577
C        5.44174367      -3.43263014       4.74317406
N        5.73940156      -4.68462350       4.14379638
C        6.85787595      -5.47412680       4.32689600
O        7.82960932      -5.20763922       5.02369382
C        6.84401733      -6.78966715       3.62018886
C        6.16779846      -6.98649028       2.40776771
C        6.19685271      -8.23745565       1.78459299
C        6.90371292      -9.29234036       2.36284508
C        7.58627796      -9.09235268       3.56147239
C        7.56450616      -7.84903320       4.19029239
H        2.45270066       0.59375942       1.04774235
H        3.88760519      -0.81975508       2.44827291
H        0.92162014      -3.96405428       2.31261027
H       -0.49724287      -2.54601061       0.87013126
H        2.84683424      -1.18816585       4.97188450
H        4.87831533       1.52400802       7.98099086
H        4.87404941      -0.14710965       8.58194300
H        7.22093114       0.70142222       8.14091095
H        6.80453325       0.96120623       6.43491628
H        7.29572694      -3.20292940       5.86184119
H        4.95993998      -5.08559553       3.61894129
H        5.63148049      -6.17662931       1.91964950
H        5.67262403      -8.38806196       0.84349427
H        6.92200098     -10.26118550       1.86999026
H        8.10226260      -7.69706529       5.12401674
C        8.32053164     -10.18030245       4.15378719
C        8.93546910     -11.09146039       4.64985084
Br       9.92977097     -12.56472570       5.45194380
