157
Properties=species:S:1:pos:R:3 pbc="F F F"
C        0.00000000       0.00000000       0.00000000
C        0.86692423       0.86692423      -0.86692423
C        0.63485736       1.17252437      -2.20698085
N        1.58354019       1.96960845      -2.70457083
N        2.44251163       2.17620888      -1.66591040
C        2.02364007       1.51480587      -0.52962983
C        3.59825718       2.99128450      -1.82963305
C        3.83398702       3.60720032      -3.06914276
C        4.94926151       4.42924097      -3.25043257
C        5.84394763       4.64666499      -2.19512935
C        5.62096592       4.01581241      -0.96502109
C        4.50296386       3.19649561      -0.77829300
C        7.02180598       5.54628165      -2.32593598
O        7.93314519       5.59556560      -1.51803024
O        6.87503605       6.31498396      -3.42374790
C        7.87347600       7.31296807      -3.65748995
C        8.18863577       7.30760548      -5.13482226
C        9.46783267       6.87988152      -5.54114897
C        9.75210597       6.84462628      -6.88967388
O       10.93366315       6.46252626      -7.44106589
C       10.64560812       6.62995273      -8.84422920
O        9.30291332       7.09095523      -9.10195836
C        8.82335885       7.20435152      -7.83452608
C        7.56097453       7.62706828      -7.48627732
C        7.24341547       7.68285954      -6.12357023
H       -0.17623346       0.85754606      -2.85016132
H        2.56471735       1.55915732       0.40225353
H        3.15101219       3.46259707      -3.90605673
H        5.10204507       4.89656079      -4.22096285
H        6.31472611       4.17270942      -0.13905207
H        4.37047277       2.73816473       0.19856022
H        8.78321645       7.13962156      -3.07182680
H        7.47938375       8.28990350      -3.35968489
H       10.22194136       6.57640588      -4.82125151
H       10.78992730       5.66764872      -9.34940318
H       11.35138473       7.35724464      -9.26310474
H        6.84526939       7.90333377      -8.25291226
C        5.92068532       8.13948607      -5.78375091
C        4.81289882       8.52191078      -5.49915223
Br       3.02170175       9.14025921      -5.03898023
C       -0.86692423      -0.86692423      -0.86692423
C       -0.43932686      -1.96803578      -1.60699994
N       -1.44571363      -2.53614199      -2.27586385
N       -2.53867877      -1.78342998      -1.96252217
C       -2.21072207      -0.75825053      -1.09910317
C       -3.81696982      -2.09690750      -2.50529742
C       -3.94992014      -3.21081705      -3.34959291
C       -5.19702040      -3.55320253      -3.87871212
C       -6.32803475      -2.78670063      -3.57100659
C       -6.19237610      -1.66330417      -2.74611915
C       -4.94670013      -1.32055412      -2.21049822
C       -7.68387401      -3.13500609      -4.07514351
O       -8.64512981      -2.38810017      -4.01351105
O       -7.67525564      -4.40164404      -4.53686822
C       -8.92494004      -4.94241552      -4.97657846
C       -8.66615758      -5.71837049      -6.24653543
C       -9.21160924      -5.22803503      -7.44921889
C       -8.95474188      -5.91526727      -8.61639698
O       -9.40840589      -5.57714856      -9.85170085
C       -8.83649696      -6.63343253     -10.64986056
O       -8.04612556      -7.56612008      -9.88358126
C       -8.18033247      -7.04872551      -8.63317847
C       -7.62507125      -7.56460574      -7.48464314
C       -7.87455814      -6.89484850      -6.28043861
H        0.55338375      -2.38927057      -1.69558709
H       -2.93919945      -0.05537660      -0.72704509
H       -3.08901671      -3.83029611      -3.60035317
H       -5.26895019      -4.42492670      -4.52569183
H       -7.06491451      -1.05580835      -2.50576475
H       -4.89705670      -0.44494364      -1.56807695
H       -9.67878310      -4.16624035      -5.14964136
H       -9.31913491      -5.60792471      -4.20191252
H       -9.81803480      -4.32766367      -7.47390028
H       -8.20030006      -6.18478875     -11.42189038
H       -9.64950575      -7.18334952     -11.13887885
H       -7.01506718      -8.46041105      -7.52603718
C       -7.29270071      -7.46040136      -5.09082023
C       -6.80539511      -7.93405189      -4.09451484
Br      -6.01746317      -8.69990473      -2.48357328
C       -0.86692423       0.86692423       0.86692423
C       -2.16674574       0.57238941       1.27522743
N       -2.67571309       1.53917491       2.04283147
N       -1.68582993       2.47332265       2.12547834
C       -0.56773328       2.08314561       1.41719688
C       -1.87502871       3.66839268       2.87575335
C       -3.08654055       3.86670061       3.55708894
C       -3.29009508       5.02083522       4.31800475
C       -2.28534613       5.99231172       4.40808412
C       -1.08498195       5.80511301       3.71170446
C       -0.87565943       4.64878439       2.95330865
C       -2.43795374       7.21710542       5.23896445
O       -1.69119640       8.17846072       5.17708391
O       -3.47326619       7.05358409       6.08691762
C       -3.71024447       8.09983883       7.03385072
C       -5.20275604       8.32088562       7.10742184
C       -5.71954193       9.54073800       6.62858323
C       -7.08359467       9.73709134       6.66572012
O       -7.73546414      10.85368316       6.24810801
C       -9.10303490      10.49022183       6.52653332
O       -9.24119793       9.16781136       7.08681762
C       -7.93997117       8.77713911       7.14512617
C       -7.48245533       7.57006071       7.62180408
C       -6.10077279       7.34281961       7.60625285
H       -2.77278542      -0.29656992       1.05525842
H        0.32689252       2.68321980       1.36529386
H       -3.88339444       3.12457306       3.51169850
H       -4.23751539       5.14345357       4.83859975
H       -0.29897797       6.55811664       3.76939300
H        0.07726494       4.54736911       2.43997312
H       -3.19862015       9.03083362       6.76521104
H       -3.32625378       7.79125496       8.01146340
H       -5.07199791      10.31646486       6.23113598
H       -9.67593380      10.53808263       5.59296277
H       -9.52176776      11.21538552       7.23458083
H       -8.18080716       6.82783546       7.99287281
C       -5.64550057       6.07738499       8.12103674
C       -5.26421009       5.01758351       8.55216824
Br      -4.64769563       3.30397414       9.24927142
C        0.86692423      -0.86692423       0.86692423
C        1.46477952      -2.06626351       0.48331955
N        2.17791668      -2.60379141       1.47601139
N        2.03186358      -1.73553777       2.51722956
C        1.23700097      -0.66300831       2.16806649
C        2.66257055      -1.98828327       3.76832091
C        3.46385294      -3.13190079       3.91457637
C        4.11139108      -3.39249757       5.12504640
C        3.96666212      -2.51343224       6.20564761
C        3.15070887      -1.38386518       6.06722537
C        2.50517723      -1.11702743       4.85554780
C        4.66896178      -2.72487215       7.50018968
O        4.40781148      -2.11576771       8.52316184
O        5.65264014      -3.63101107       7.33011670
C        6.49973267      -3.89041482       8.45378654
C        6.73444002      -5.38138821       8.51523527
C        6.19157632      -6.09665416       9.60063268
C        6.37703389      -7.46193376       9.64743849
O        5.92289632      -8.29066577      10.62369321
C        6.40883029      -9.56259548      10.14836429
O        7.12531111      -9.47118140       8.89933440
C        7.06338591      -8.13293805       8.66591249
C        7.61011589      -7.47794516       7.58625908
C        7.44716339      -6.08902378       7.51365807
H        1.42018963      -2.57948002      -0.46819574
H        1.00729633       0.13818522       2.85251003
H        3.60117319      -3.82972974       3.08876306
H        4.72956202      -4.28411916       5.20588753
H        3.02566341      -0.69672864       6.90409555
H        1.89112113      -0.22182591       4.79713025
H        6.06752093      -3.53228618       9.39485770
H        7.44979464      -3.36470187       8.31447563
H        5.63260474      -5.59939584      10.38759816
H        5.55476589     -10.23705025      10.01516306
H        7.07878473      -9.98754484      10.90540454
H        8.14571740      -8.03241498       6.82338305
C        8.03822155      -5.42471235       6.38098840
C        8.53323276      -4.86835152       5.43237756
Br       9.33362401      -3.96876313       3.89855405
