178
Properties=species:S:1:pos:R:3 pbc="F F F"
C        1.77682825       1.77682825      -1.77682825
C        1.54476139       2.08242839      -3.11688487
N        2.49344421       2.87951247      -3.61447486
N        3.35241566       3.08611291      -2.57581442
C        2.93354409       2.42470989      -1.43953385
C        4.50816120       3.90118853      -2.73953708
C        4.74389104       4.51710434      -3.97904678
C        5.85916554       5.33914499      -4.16033659
C        6.75385165       5.55656901      -3.10503338
C        6.53086994       4.92571643      -1.87492511
C        5.41286789       4.10639963      -1.68819702
C        7.93171001       6.45618568      -3.23584000
O        8.84304922       6.50546962      -2.42793426
O        7.78494007       7.22488798      -4.33365193
C        8.78338002       8.22287209      -4.56739398
C        9.09853979       8.21750950      -6.04472628
C       10.37773670       7.78978555      -6.45105299
C       10.66200999       7.75453031      -7.79957790
O       11.84356718       7.37243028      -8.35096992
C       11.55551215       7.53985676      -9.75413322
O       10.21281734       8.00085925     -10.01186238
C        9.73326288       8.11425554      -8.74443011
C        8.47087855       8.53697230      -8.39618134
C        8.15331949       8.59276357      -7.03347426
H        0.73367056       1.76745008      -3.76006534
H        3.47462137       2.46906134      -0.50765050
H        4.06091621       4.37250110      -4.81596075
H        6.01194910       5.80646481      -5.13086687
H        7.22463013       5.08261345      -1.04895610
H        5.28037679       3.64806876      -0.71134381
H        9.69312048       8.04952558      -3.98173082
H        8.38928777       9.19980753      -4.26958892
H       11.13184538       7.48630990      -5.73115553
H       11.69983132       6.57755274     -10.25930720
H       12.26128875       8.26714867     -10.17300877
H        7.75517342       8.81323779      -9.16281628
C        6.83058935       9.04939009      -6.69365494
C        5.72280285       9.43181481      -6.40905625
Br       3.93160577      10.05016323      -5.94888426
C       -1.77682825      -1.77682825      -1.77682825
C       -1.83971154      -1.73564833      -3.16871479
N       -2.70322371      -2.63208816      -3.65211967
N       -3.20685774      -3.25745475      -2.55003049
C       -2.65282147      -2.75414361      -1.39082276
C       -4.17676940      -4.29142805      -2.68068936
C       -4.59337461      -4.68390758      -3.96275998
C       -5.52813582      -5.71053194      -4.11997937
C       -6.05907140      -6.35865395      -2.99772869
C       -5.65994328      -5.95343037      -1.71813783
C       -4.72065853      -4.92977823      -1.55702778
C       -7.02437282      -7.48485392      -3.11450895
O       -7.66847829      -7.92839018      -2.17958464
O       -7.01223692      -7.95218149      -4.37906157
C       -7.81451585      -9.10453561      -4.65459464
C       -8.49263059      -8.88216824      -5.98597674
C       -9.89233434      -8.72416754      -6.00207336
C      -10.51423147      -8.49161721      -7.21026952
O      -11.84966758      -8.32240204      -7.39489776
C      -11.90371550      -8.12351463      -8.82227199
O      -10.60770100      -8.16264227      -9.45519570
C       -9.80626466      -8.40256649      -8.38311738
C       -8.43836794      -8.54842688      -8.41723738
C       -7.77722454      -8.79470778      -7.20762499
H       -1.30171240      -1.09995432      -3.85951927
H       -2.91613440      -3.12301659      -0.41218223
H       -4.19180214      -4.20302860      -4.85454733
H       -5.82730157      -5.99556183      -5.12641738
H       -6.07203761      -6.44648825      -0.83767382
H       -4.43723611      -4.65972875      -0.54282450
H       -8.55908207      -9.29237501      -3.87291980
H       -7.16840951      -9.98689974      -4.70337497
H      -10.48161286      -8.77616137      -5.09153659
H      -12.36400341      -7.14902309      -9.02366477
H      -12.53151886      -8.90753494      -9.26239239
H       -7.90287514      -8.47113664      -9.35721571
C       -6.34760823      -8.95543096      -7.27059519
C       -5.15030456      -9.09003662      -7.32333273
Br      -3.21436580      -9.30768258      -7.40860488
C       -1.77682825       1.77682825       1.77682825
C       -2.77964312       2.63528257       1.32914896
N       -3.37613993       3.27022466       2.34106696
N       -2.74184180       2.81393745       3.45856374
C       -1.76171458       1.89654587       3.13952739
C       -3.11724811       3.28199141       4.74964729
C       -4.17096321       4.20248791       4.86659105
C       -4.57356791       4.66171803       6.12336119
C       -3.92826759       4.20700755       7.28017890
C       -2.86342840       3.30522263       7.16286046
C       -2.46107238       2.83939350       5.90699866
C       -4.34759503       4.63364027       8.64250039
O       -3.68911702       4.43796124       9.64937485
O       -5.57049336       5.19728331       8.57570330
C       -6.17724042       5.58378510       9.81262058
C       -6.83057977       6.92922779       9.60096801
C       -6.29683657       8.04259883      10.27913984
C       -6.86997467       9.27846684      10.06767669
O       -6.47746538      10.44374277      10.64575923
C       -7.41945489      11.36719027      10.06285696
O       -8.33948194      10.74246079       9.14359624
C       -7.93134770       9.44717473       9.21342610
C       -8.48555570       8.39045727       8.52801923
C       -7.93198803       7.11979324       8.72777604
H       -3.10986300       2.83335333       0.31796966
H       -1.15142612       1.41369368       3.88621342
H       -4.69670339       4.56800457       3.98467011
H       -5.39658833       5.37085679       6.18183567
H       -2.34976262       2.95014821       8.05628886
H       -1.63567663       2.13277222       5.87134051
H       -5.45479419       5.63467267      10.63491003
H       -6.92982209       4.83877867      10.09008346
H       -5.45012140       7.94702063      10.95216879
H       -6.86267389      12.14579243       9.52822496
H       -7.99563348      11.83660888      10.86920383
H       -9.32242063       8.55159187       7.85721499
C       -8.53648957       6.02835602       8.00878878
C       -9.04275961       5.11427735       7.40663694
Br      -9.86135545       3.63628945       6.43300836
C        1.77682825      -1.77682825       1.77682825
C        2.90172487      -2.48506049       1.35728930
N        3.46295431      -3.16305510       2.36142213
N        2.68159832      -2.88815795       3.44458672
C        1.64551007      -2.03926356       3.11301421
C        2.98009447      -3.45102994       4.71776240
C        4.10847253      -4.27490803       4.85666161
C        4.43621786      -4.82288430       6.09954496
C        3.64041577      -4.55470003       7.22033823
C        2.50301665      -3.75035947       7.07813537
C        2.17474161      -3.19592157       5.83680136
C        3.97132623      -5.07985945       8.57255000
O        3.20374288      -5.05368751       9.51902271
O        5.24726175      -5.51523645       8.58098178
C        5.77138345      -5.96982884       9.83243381
C        6.57889329      -7.21791489       9.56396739
C        6.10275951      -8.44155228      10.07426345
C        6.81939411      -9.58876270       9.80796140
O        6.49797639     -10.83996441      10.22902658
C        7.58223919     -11.60415408       9.66310885
O        8.51469126     -10.80253765       8.90831006
C        7.96859421      -9.56608870       9.05726562
C        8.47159632      -8.39584714       8.53658874
C        7.77180551      -7.21111341       8.79663840
H        3.34498601      -2.54419417       0.37200581
H        0.92021459      -1.69702407       3.83409456
H        4.75058502      -4.49483968       4.00395337
H        5.31963542      -5.45321944       6.17642592
H        1.87286152      -3.54082709       7.94251108
H        1.28707789      -2.57068908       5.78202239
H        4.98370845      -6.17451008      10.56615836
H        6.41230990      -5.19010215      10.25627217
H        5.19085816      -8.49737633      10.66107632
H        7.16299148     -12.37173403       9.00196577
H        8.12548746     -12.09870548      10.47725324
H        9.38039001      -8.40608886       7.94474862
C        8.32414428      -5.99823133       8.25125876
C        8.78672800      -4.98244260       7.79450331
Br       9.53468676      -3.33999812       7.05596838
C       -0.00445707       0.01189536      -1.78238275
H       -0.66409135       0.67374010      -2.43557963
H        0.65740317      -0.63156657      -2.45157240
C       -0.90989263      -0.90692880      -0.91072765
C        0.90977584       0.90977584      -0.90977584
C       -0.00465871       1.77757030       0.00794375
H       -0.66225468       2.44313916      -0.64384735
H        0.64322798       2.43503045       0.67728295
C       -1.78241447       0.00034974      -0.00472694
H       -2.45427497      -0.65498947       0.64260836
H       -2.43311707       0.67328779      -0.65473579
C       -0.91132561       0.90220522       0.91563759
C       -0.01476271      -0.02253852       1.78660255
H       -0.67934791      -0.69751639       2.42135241
H        0.63392994       0.61504881       2.47327442
C        0.01484550      -1.77751727      -0.01636693
H        0.67870853      -2.42144646      -0.68295456
H       -0.62264859      -2.45592969       0.64226336
C        1.78714474       0.01002794       0.00389507
H        2.44202412       0.67113390       0.66197326
H        2.45385902      -0.65136977      -0.64189061
C        0.91606151      -0.90478549       0.90901405
