149
Properties=species:S:1:pos:R:3 pbc="F F F"
C        0.00000000       0.00000000       0.00000000
C        0.86692423       0.86692423      -0.86692423
C        0.63485736       1.17252437      -2.20698085
N        1.58354019       1.96960845      -2.70457083
N        2.44251163       2.17620888      -1.66591040
C        2.02364007       1.51480587      -0.52962983
C        3.59825718       2.99128450      -1.82963305
C        3.83398702       3.60720032      -3.06914276
C        4.94926151       4.42924097      -3.25043257
C        5.84394763       4.64666499      -2.19512935
C        5.62096592       4.01581241      -0.96502109
C        4.50296386       3.19649561      -0.77829300
C        7.02180598       5.54628165      -2.32593598
O        7.93314519       5.59556560      -1.51803024
O        6.87503605       6.31498396      -3.42374790
C        7.87347600       7.31296807      -3.65748995
C        8.18863577       7.30760548      -5.13482226
C        9.46783267       6.87988152      -5.54114897
C        9.75210597       6.84462628      -6.88967388
O       10.93366315       6.46252626      -7.44106589
C       10.64560812       6.62995273      -8.84422920
O        9.30291332       7.09095523      -9.10195836
C        8.82335885       7.20435152      -7.83452608
C        7.56097453       7.62706828      -7.48627732
C        7.24341547       7.68285954      -6.12357023
Br       5.49619998       8.28602485      -5.67469743
H       -0.17623346       0.85754606      -2.85016132
H        2.56471735       1.55915732       0.40225353
H        3.15101219       3.46259707      -3.90605673
H        5.10204507       4.89656079      -4.22096285
H        6.31472611       4.17270942      -0.13905207
H        4.37047277       2.73816473       0.19856022
H        8.78321645       7.13962156      -3.07182680
H        7.47938375       8.28990350      -3.35968489
H       10.22194136       6.57640588      -4.82125151
H       10.78992730       5.66764872      -9.34940318
H       11.35138473       7.35724464      -9.26310474
H        6.84526939       7.90333377      -8.25291226
C       -0.86692423      -0.86692423      -0.86692423
C       -1.95612766      -1.62242212      -0.43581281
N       -2.52767561      -2.28686478      -1.44317909
N       -1.78930582      -1.95490287      -2.54042223
C       -0.76958672      -1.08445032      -2.21403873
C       -2.11028445      -2.48794457      -3.82094572
C       -3.21693450      -3.34214022      -3.95125537
C       -3.56663846      -3.86213509      -5.20016149
C       -2.81481030      -3.53528562      -6.33564604
C       -1.69845145      -2.70042685      -6.20292112
C       -1.34846287      -2.17391288      -4.95537671
C       -3.17179057      -4.02926658      -7.69296647
O       -2.43535399      -3.95037271      -8.66101433
O       -4.43356440      -4.50390809      -7.67629542
C       -4.98256016      -4.93649403      -8.92487983
C       -5.74302370      -6.21681425      -8.67122554
C       -5.24617972      -7.40890010      -9.23378334
C       -5.91898347      -8.58553069      -8.98189198
O       -5.57307919      -9.81270489      -9.45147122
C       -6.61540791     -10.62727748      -8.87710467
O       -7.54767667      -9.87851325      -8.06963699
C       -7.04428377      -8.62162761      -8.19632506
C       -7.56602522      -7.48404278      -7.62425212
C       -6.91099229      -6.27064148      -7.86821147
Br      -7.66596462      -4.71474634      -7.07621131
H       -2.36633536      -1.72527354       0.56013498
H       -0.07793527      -0.69795298      -2.94573289
H       -3.82507406      -3.60783709      -3.08675484
H       -4.43249337      -4.51718709      -5.26988825
H       -1.10230746      -2.44513952      -7.07904063
H       -0.47890274      -1.52315505      -4.90801949
H       -4.21238664      -5.09406138      -9.68821679
H       -5.65980524      -4.16470603      -9.30446088
H       -4.35181733      -7.41832212      -9.84945929
H       -6.15257226     -11.40106996      -8.25333697
H       -7.16861252     -11.11365419      -9.68946740
H       -8.45512065      -7.54067903      -7.00571574
C       -0.86692423       0.86692423       0.86692423
C       -2.25897346       0.82786900       0.92752012
N       -2.74210794       1.72077754       1.79483398
N       -1.64010504       2.34727083       2.29725505
C       -0.48058701       1.83990732       1.74758144
C       -1.77077812       3.38142977       3.26696685
C       -3.04986748       3.73497481       3.72548781
C       -3.20480014       4.73173514       4.69239977
C       -2.08321442       5.38854128       5.21398626
C       -0.80882389       5.05123271       4.74174281
C       -0.64946689       4.05047492       3.77781066
C       -2.19320887       6.42612038       6.27469436
O       -1.28102581       7.16665147       6.59906376
O       -3.41692900       6.36018601       6.83665290
C       -3.67055100       7.22638733       7.94699570
C       -5.06209452       7.78971256       7.77925642
C       -5.19587733       9.16866319       7.52432265
C       -6.46134117       9.68401397       7.34105099
O       -6.75864164      10.98626913       7.09234454
C       -8.19646966      10.92390557       6.99941482
O       -8.72449734       9.59311803       7.17821154
C       -7.58021935       8.89013314       7.39188396
C       -7.49966227       7.53834039       7.63631747
C       -6.22882971       6.98510177       7.83591376
Br      -6.15272529       5.11721153       8.18698545
H       -2.95003288       0.19550445       0.38593659
H        0.49879362       2.19911486       2.02129990
H       -3.94025930       3.23587062       3.34353607
H       -4.20840709       4.97979206       5.03136957
H        0.07036615       5.56092826       5.13592550
H        0.36172402       3.81976623       3.45203508
H       -2.93652599       8.03652120       8.02161762
H       -3.60744369       6.64752769       8.87400076
H       -4.33147192       9.82312065       7.46500617
H       -8.50076079      11.29323999       6.01297842
H       -8.62655591      11.57688250       7.76829570
H       -8.39923536       6.93336812       7.66891194
C        0.86692423      -0.86692423       0.86692423
C        0.42194323      -1.70174470       1.89067464
N        1.43272015      -2.34668131       2.47831801
N        2.54742345      -1.91486166       1.82234581
C        2.22676869      -1.01164538       0.82966169
C        3.83699600      -2.39615010       2.18602863
C        3.95060347      -3.34586861       3.21385802
C        5.20217920      -3.85059546       3.57616039
C        6.35707139      -3.41275018       2.91592039
C        6.24672301      -2.44991597       1.90516044
C        4.99517627      -1.94629205       1.53628414
C        7.70664584      -3.95103176       3.23634601
O        8.74815325      -3.45200959       2.84657820
O        7.57481492      -5.08429333       3.95465966
C        8.77461886      -5.79586353       4.27345163
C        8.66341883      -6.26146222       5.70618244
C        9.53322713      -5.69632723       6.65930880
C        9.41731981      -6.09524060       7.97384571
O       10.17919211      -5.65073828       9.00732491
C        9.61604809      -6.40112716      10.10261480
O        8.52724997      -7.26134232       9.70723461
C        8.47746538      -7.01373562       8.37103546
C        7.60542032      -7.59174527       7.47715454
C        7.70316941      -7.21454672       6.13212912
Br       6.49425743      -8.04304521       4.91961963
H       -0.58656877      -1.87645313       2.24158956
H        2.96996294      -0.55937697       0.19228123
H        3.06874481      -3.71083974       3.74008145
H        5.25727595      -4.58931910       4.37297366
H        7.13989003      -2.09713087       1.38946671
H        4.96315200      -1.20784233       0.73908296
H        9.67273353      -5.18261290       4.13931837
H        8.86875286      -6.65659854       3.60362074
H       10.27962435      -4.95813080       6.38184359
H        9.25071101      -5.69690855      10.85935964
H       10.40549684      -7.01855311      10.54768417
H        6.87065061      -8.31314080       7.81772401
