170
Properties=species:S:1:pos:R:3 pbc="F F F"
C        1.77682825       1.77682825      -1.77682825
C        1.54476139       2.08242839      -3.11688487
N        2.49344421       2.87951247      -3.61447486
N        3.35241566       3.08611291      -2.57581442
C        2.93354409       2.42470989      -1.43953385
C        4.50816120       3.90118853      -2.73953708
C        4.74389104       4.51710434      -3.97904678
C        5.85916554       5.33914499      -4.16033659
C        6.75385165       5.55656901      -3.10503338
C        6.53086994       4.92571643      -1.87492511
C        5.41286789       4.10639963      -1.68819702
C        7.93171001       6.45618568      -3.23584000
O        8.84304922       6.50546962      -2.42793426
O        7.78494007       7.22488798      -4.33365193
C        8.78338002       8.22287209      -4.56739398
C        9.09853979       8.21750950      -6.04472628
C       10.37773670       7.78978555      -6.45105299
C       10.66200999       7.75453031      -7.79957790
O       11.84356718       7.37243028      -8.35096992
C       11.55551215       7.53985676      -9.75413322
O       10.21281734       8.00085925     -10.01186238
C        9.73326288       8.11425554      -8.74443011
C        8.47087855       8.53697230      -8.39618134
C        8.15331949       8.59276357      -7.03347426
Br       6.40610400       9.19592888      -6.58460146
H        0.73367056       1.76745008      -3.76006534
H        3.47462137       2.46906134      -0.50765050
H        4.06091621       4.37250110      -4.81596075
H        6.01194910       5.80646481      -5.13086687
H        7.22463013       5.08261345      -1.04895610
H        5.28037679       3.64806876      -0.71134381
H        9.69312048       8.04952558      -3.98173082
H        8.38928777       9.19980753      -4.26958892
H       11.13184538       7.48630990      -5.73115553
H       11.69983132       6.57755274     -10.25930720
H       12.26128875       8.26714867     -10.17300877
H        7.75517342       8.81323779      -9.16281628
C       -1.77682825      -1.77682825      -1.77682825
C       -2.88199777      -2.51157138      -1.35050550
N       -3.44893096      -3.18196418      -2.35653641
N       -2.69133172      -2.87506071      -3.44795055
C       -1.66429136      -2.01407386      -3.11942262
C       -3.00225316      -3.42120149      -4.72543216
C       -4.11863422      -4.26207557      -4.85933238
C       -4.45852410      -4.79435102      -6.10577201
C       -3.68702244      -4.49326444      -7.23516715
C       -2.56123177      -3.67182173      -7.09845798
C       -2.22094967      -3.13305089      -5.85346398
C       -4.03236672      -5.00091694      -8.59045203
O       -3.28191048      -4.94523961      -9.54930302
O       -5.30063122      -5.45819930      -8.58464946
C       -5.83858356      -5.90038570      -9.83467684
C       -6.61986304      -7.16672423      -9.57418831
C       -6.13183466      -8.37300323     -10.11373735
C       -6.82402699      -9.53687949      -9.85521172
O       -6.48864673     -10.77492849     -10.30339216
C       -7.54969405     -11.56740705      -9.73240102
O       -8.48244478     -10.79513291      -8.94796128
C       -7.96022424      -9.54701387      -9.08471042
C       -8.47402024      -8.39475923      -8.53525273
C       -7.79919910      -7.19377041      -8.78658781
Br      -8.54342584      -5.61712124      -8.02608725
H       -3.30699037      -2.59522627      -0.35896935
H       -0.95759267      -1.64700884      -3.84673170
H       -4.74197628      -4.50767207      -3.99972971
H       -5.33224614      -5.43854125      -6.17849340
H       -1.94986864      -3.43662991      -7.96970113
H       -1.34327974      -2.49351036      -5.80299925
H       -5.06039938      -6.07877860     -10.58519891
H       -6.50000877      -5.12479005     -10.23388540
H       -5.22945063      -8.40293384     -10.71692634
H       -7.10596434     -12.33876727      -9.09195966
H       -8.09848313     -12.05734457     -10.54561848
H       -9.37208140      -8.43090663      -7.92823946
C       -1.77682825       1.77682825       1.77682825
C       -3.16895106       1.73876686       1.83635674
N       -3.65206667       2.63138863       2.70397623
N       -2.54997212       3.25668434       3.20768652
C       -1.39042288       2.74886563       2.65849933
C       -2.68059761       4.29021700       4.17807220
C       -3.95976480       4.64437456       4.63590281
C       -4.11467566       5.64052882       5.60344264
C       -2.99299000       6.29610846       6.12635558
C       -1.71849928       5.95820111       5.65481109
C       -1.55916929       4.95804386       4.69025139
C       -3.10300223       7.33297797       7.18775548
O       -2.19050947       8.07258589       7.51335774
O       -4.32719029       7.26753789       7.74875181
C       -4.58099485       8.13309989       8.85955135
C       -5.97199226       8.69758854       8.69119477
C       -6.10455626      10.07682839       8.43719059
C       -7.36949824      10.59326009       8.25335987
O       -7.66564166      11.89592192       8.00540380
C       -9.10344604      11.83470087       7.91135522
O       -9.63259940      10.50417483       8.08876474
C       -8.48900584       9.80017690       8.30276578
C       -8.40963944       8.44814247       8.54625029
C       -7.13936919       7.89380677       8.74638136
Br      -7.06491995       6.02559893       9.09611545
H       -3.86007750       1.10732238       1.29378611
H       -0.41097919       3.10713784       2.93321619
H       -4.85024329       4.14622009       4.25291468
H       -5.11835004       5.88908187       5.94184888
H       -0.83922379       6.46694617       6.05002972
H       -0.54790786       4.72682353       4.36505797
H       -3.84642173       8.94262980       8.93532535
H       -4.51901121       7.55350210       9.78617092
H       -5.23961895      10.73068455       8.37900732
H       -9.40672528      12.20499791       6.92496808
H       -9.53361892      12.48742500       8.68040227
H       -9.30968756       7.84381765       8.57772228
C        1.77682825      -1.77682825       1.77682825
C        1.33452360      -2.59254247       2.81700859
N        2.34449264      -3.24298301       3.39995590
N        3.45601593      -2.83419811       2.72412895
C        3.13409773      -1.93972355       1.72396656
C        4.74392056      -3.32753141       3.07743483
C        4.85868599      -4.26535048       4.11600570
C        6.10828070      -4.78164090       4.46872552
C        7.26000805      -4.36740995       3.78803604
C        7.14889227      -3.41630030       2.76631892
C        5.89922671      -2.90119755       2.40704028
C        8.60660778      -4.91906508       4.09806283
O        9.64928055      -4.43871109       3.68846146
O        8.46958205      -6.04117950       4.83271843
C        9.66418615      -6.76416366       5.14529628
C        9.56568478      -7.20980668       6.58528411
C       10.45503586      -6.64384054       7.51969884
C       10.35114564      -7.02426836       8.84070421
O       11.13207417      -6.57647469       9.85841852
C       10.57364449      -7.30531158      10.97054605
O        9.46881236      -8.15628086      10.60044575
C        9.40480998      -7.92525398       9.26188457
C        8.51382890      -8.50330142       8.38690187
C        8.59888736      -8.14474034       7.03592962
Br       7.36372208      -8.97294356       5.84996870
H        0.32850595      -2.74956677       3.18311328
H        3.87467953      -1.50541333       1.07124035
H        3.97913749      -4.61200099       4.65823959
H        6.16424897      -5.51070954       5.27432228
H        8.03972769      -3.08184568       2.23462630
H        5.86631847      -2.17270842       1.60076246
H       10.56829049      -6.16444379       4.99164260
H        9.73850501      -7.63459675       4.48558245
H       11.20718766      -5.91906251       7.22306065
H       10.22728730      -6.58671688      11.72268709
H       11.36081854      -7.92719599      11.41343165
H        7.77434104      -9.21062118       8.74626527
C       -0.00445707       0.01189536      -1.78238275
H       -0.66409135       0.67374010      -2.43557963
H        0.65740317      -0.63156657      -2.45157240
C       -0.90989263      -0.90692880      -0.91072765
C        0.90977584       0.90977584      -0.90977584
C       -0.00465871       1.77757030       0.00794375
H       -0.66225468       2.44313916      -0.64384735
H        0.64322798       2.43503045       0.67728295
C       -1.78241447       0.00034974      -0.00472694
H       -2.45427497      -0.65498947       0.64260836
H       -2.43311707       0.67328779      -0.65473579
C       -0.91132561       0.90220522       0.91563759
C       -0.01476271      -0.02253852       1.78660255
H       -0.67934791      -0.69751639       2.42135241
H        0.63392994       0.61504881       2.47327442
C        0.01484550      -1.77751727      -0.01636693
H        0.67870853      -2.42144646      -0.68295456
H       -0.62264859      -2.45592969       0.64226336
C        1.78714474       0.01002794       0.00389507
H        2.44202412       0.67113390       0.66197326
H        2.45385902      -0.65136977      -0.64189061
C        0.91606151      -0.90478549       0.90901405
