109
Properties=species:S:1:pos:R:3 pbc="F F F"
C        0.00000000       0.00000000       0.00000000
N        5.26459635       3.73252226       4.00303622
C        5.45831768       3.73436126       2.85869567
C        5.68989648       3.73039777       1.45493534
C        6.91610593       3.55126034       0.79156558
N        6.78840075       3.59542162      -0.53787107
N        5.46771920       3.80065476      -0.71827061
H        5.11033581       3.85072840      -1.66712468
C        4.75679036       3.91000858       0.45585260
N        3.41935895       4.14378920       0.50252306
C        2.56678894       4.29143566      -0.66718401
C        2.13462493       2.94618364      -1.19503366
C        1.32025262       2.11719724      -0.40215645
C        0.88194026       0.88194026      -0.88194026
C        1.23539967       0.44887413      -2.15659845
C        2.04781110       1.25900573      -2.94767355
C        2.50257175       2.49511230      -2.46841419
O        3.32278283       3.28748044      -3.22927994
H        7.89748584       3.39016020       1.21843742
H        2.92350033       4.13172377       1.39223458
H        3.05499544       4.90643342      -1.43169228
H        1.66859128       4.85219985      -0.37975777
H        1.03216006       2.44193884       0.59584575
H        0.88353038      -0.51045692      -2.52641179
H        3.42728457       2.84735684      -4.09595036
C        2.40579502       0.80558211      -4.26670900
C        2.70560656       0.42583982      -5.37140119
Br       3.19037646      -0.18817133      -7.15759504
N       -1.17548438       3.04041751      -6.85901553
C       -1.46319774       1.91820364      -6.78898917
C       -1.81166601       0.54196029      -6.69565319
C       -1.56592342      -0.46792201      -7.64195525
N       -2.01679010      -1.66115693      -7.24374641
N       -2.54983322      -1.40517076      -6.03164059
H       -2.94736844      -2.17630928      -5.50451117
C       -2.47077531      -0.08229869      -5.65787235
N       -2.96892529       0.39648638      -4.48818618
C       -3.62953605      -0.41700249      -3.47887007
C       -2.62159609      -1.08039567      -2.57385047
C       -1.79976821      -0.28927359      -1.75056451
C       -0.88194026      -0.88194026      -0.88194026
C       -0.76648972      -2.26698464      -0.80739789
C       -1.57065010      -3.06000212      -1.62383816
C       -2.48581037      -2.47235999      -2.50792788
O       -3.26302318      -3.24334798      -3.33317206
H       -1.07774965      -0.38699811      -8.60446086
H       -2.81109559       1.36577336      -4.21766728
H       -4.31528649      -1.13500690      -3.94282775
H       -4.26704235       0.23194415      -2.86545069
H       -1.87929018       0.79526883      -1.79423180
H       -0.05539505      -2.72136331      -0.12272690
H       -3.07851218      -4.17805494      -3.11402465
C       -1.44796469      -4.49219204      -1.53792940
C       -1.34521566      -5.69165110      -1.46598082
Br      -1.17907916      -7.63107496      -1.34964605
N       -6.59238961      -3.34229167       1.74398445
C       -6.35040402      -2.41477025       2.39834950
C       -6.04563663      -1.27790976       3.19763205
C       -6.22638423      -1.13478908       4.58420554
N       -5.83068422       0.06128635       5.02972288
N       -5.39140400       0.68029417       3.91494640
H       -5.01121621       1.61780018       3.99917250
C       -5.51644008      -0.07783109       2.77233735
N       -5.15924885       0.36329152       1.53808472
C       -4.58836356       1.67317226       1.26387280
C       -3.09893898       1.67490148       1.50200177
C       -2.26589724       0.87273387       0.70097520
C       -0.88194026       0.88194026       0.88194026
C       -0.29781114       1.69002995       1.85303117
C       -1.11434985       2.48315889       2.65698163
C       -2.50591007       2.47007542       2.49011275
O       -3.31914996       3.22747213       3.29292113
H       -6.62892408      -1.84970683       5.28999137
H       -5.19083825      -0.26394811       0.73609938
H       -5.10658908       2.45261877       1.83391328
H       -4.76796858       1.92208873       0.21049158
H       -2.70610165       0.23715124      -0.06499974
H        0.78110184       1.69804739       1.98253972
H       -2.73898486       3.75343448       3.87817243
C       -0.50203047       3.31934612       3.65670955
C        0.01078701       4.01965292       4.49398167
Br       0.83996951       5.15198978       5.84777989
N       -3.93352185      -5.54739411       3.38021013
C       -2.78345412      -5.69875768       3.41867971
C       -1.37267089      -5.87814695       3.45988286
C       -0.65673736      -7.07133753       3.26120051
N        0.66431214      -6.89652838       3.36085291
N        0.78638264      -5.57891468       3.62134726
H        1.71838390      -5.18899727       3.72080772
C       -0.41730426      -4.91642346       3.71182714
N       -0.52367565      -3.59154014       3.99276060
C        0.60633245      -2.70273115       4.21634502
C        1.16646352      -2.20027820       2.90910051
C        0.37409433      -1.38455510       2.08095689
C        0.88194026      -0.88194026       0.88194026
C        2.18427238      -1.17138142       0.48521845
C        2.97546157      -1.98449163       1.29453719
C        2.46873717      -2.50354472       2.49381634
O        3.23071233      -3.32487699       3.28395390
H       -1.03953596      -8.06089583       3.04784875
H       -1.43065324      -3.12869453       3.96494823
H        1.36578017      -3.18560894       4.84173203
H        0.26429975      -1.83783735       4.79841179
H       -0.64548155      -1.14605395       2.37768075
H        2.57544488      -0.76969251      -0.44565214
H        4.11637004      -3.38047110       2.87375062
C        4.32303131      -2.27603752       0.87901730
C        5.45162098      -2.52020720       0.53101940
Br       7.27645501      -2.91500893      -0.03166377
