101
Properties=species:S:1:pos:R:3 pbc="F F F"
C        0.00000000       0.00000000       0.00000000
C        0.88196043       0.88196043      -0.88196043
C        0.58173243       2.23872654      -1.01943623
C        1.38491010       3.06703624      -1.81987416
C        1.04296664       4.53065765      -1.96512087
N        0.30122878       4.76506877      -3.20393576
N       -0.14330595       6.11506628      -3.30758452
C        0.59695918       7.25996233      -3.26787401
N       -0.18769739       8.29948150      -3.44681169
N       -1.46918094       7.82571326      -3.63350916
C       -1.42215789       6.51374906      -3.55599348
C        2.47506366       2.49625534      -2.49116743
O        3.23489754       3.30519711      -3.29582451
C        2.76911224       1.13458661      -2.34748478
C        1.97531165       0.32311620      -1.53979932
H       -0.28204345       2.65621393      -0.50468135
H        1.97014331       5.11744787      -1.93707510
H        0.45187607       4.84939615      -1.09667317
H        0.90378050       4.50951548      -3.98672707
H        1.66343856       7.28497768      -3.10638083
H       -2.24935229       5.83030317      -3.67390882
H        3.95454224       2.75612645      -3.66227354
H        2.20128761      -0.73398384      -1.42737468
C        3.89190773       0.54903000      -3.03308944
C        4.83224896       0.05862634      -3.60728334
Br       6.35270118      -0.73431490      -4.53570631
C       -0.88196043      -0.88196043      -0.88196043
C       -0.77532453      -2.27141812      -0.79315256
C       -1.58266895      -3.09880289      -1.59034865
C       -1.45033199      -4.59959847      -1.48881469
N       -0.59661667      -5.11424244      -2.55937420
N       -0.35201454      -6.51087790      -2.41645239
C       -1.25591342      -7.52940524      -2.33947686
N       -0.62117681      -8.67789215      -2.25952685
N        0.73057545      -8.41015397      -2.31046296
C        0.87308740      -7.10689412      -2.41377794
C       -2.47616114      -2.49826499      -2.48806029
O       -3.23755348      -3.31300080      -3.28536488
C       -2.57681465      -1.10387462      -2.57049436
C       -1.78215898      -0.29065925      -1.76540894
H       -0.05985624      -2.71578516      -0.10321042
H       -2.45127168      -5.04858637      -1.52480824
H       -1.03346300      -4.85786130      -0.50662110
H       -1.04552474      -4.90340299      -3.45109533
H       -2.32573436      -7.38952230      -2.33954040
H        1.80250695      -6.56370792      -2.49365874
H       -3.81133922      -2.73616349      -3.82543952
H       -1.85815929       0.79167476      -1.82819392
C       -3.49817045      -0.48674609      -3.48911064
C       -4.26980592       0.03009906      -4.25845178
Br      -5.51747523       0.86579395      -5.50241132
C       -0.88196043       0.88196043       0.88196043
C       -2.20531771       0.50889665       1.12568084
C       -3.02936115       1.30277329       1.93968606
C       -4.46068334       0.89041313       2.18764869
N       -5.36598714       1.61131252       1.29293364
N       -6.70952639       1.15269790       1.41712055
C       -7.49075010       1.10010790       2.53393753
N       -8.68659914       0.65627169       2.21572498
N       -8.69956193       0.43592796       0.85455159
C       -7.50897951       0.74757975       0.39102540
C       -2.50003953       2.48331371       2.47913318
O       -3.32075925       3.26882513       3.24633478
C       -1.17160769       2.84982323       2.22975271
C       -0.35679863       2.04874393       1.43268461
H       -2.60120844      -0.40196288       0.67960626
H       -4.70746259       1.07631967       3.24088403
H       -4.55355100      -0.19310658       2.03750098
H       -5.29085340       2.60720337       1.50196629
H       -7.15479113       1.37961421       3.52039173
H       -7.18627766       0.70685641      -0.63827437
H       -2.79003005       4.02845669       3.55445549
H        0.67421887       2.33158335       1.23731397
C       -0.62613941       4.06001671       2.78787105
C       -0.16930972       5.07355376       3.25529516
Br       0.56934525       6.71235743       4.01108042
C        0.88196043      -0.88196043       0.88196043
C        2.25461334      -0.63497233       0.95030954
C        3.08054505      -1.43018089       1.76109456
C        4.56433740      -1.15583436       1.81857339
N        5.28917026      -2.05759985       0.92346320
N        6.67707912      -1.74011378       0.86215195
C        7.57819905      -1.66343539       1.88316108
N        8.76973042      -1.38820271       1.40066268
N        8.65411397      -1.30695892       0.02896859
C        7.39458886      -1.52971602      -0.27672022
C        2.49939228      -2.48557619       2.47751796
O        3.31769929      -3.27679490       3.24142498
C        1.12174715      -2.72608460       2.40335188
C        0.30753340      -1.92309052       1.60760324
H        2.68733637       0.17774581       0.36926126
H        4.90622729      -1.26230005       2.85613895
H        4.74723343      -0.10950794       1.54120402
H        5.13901989      -3.01337825       1.24762492
H        7.32714214      -1.80474030       2.92291463
H        6.96583907      -1.55606024      -1.26703961
H        2.75142192      -3.93877639       3.68274392
H       -0.76172019      -2.10833741       1.54806124
C        0.52374302      -3.80716591       3.14311824
C        0.02291457      -4.71257151       3.76267256
Br      -0.78688269      -6.17653578       4.76443951
