122
Properties=species:S:1:pos:R:3 pbc="F F F"
C        1.79186446       1.79186446      -1.79186446
C        1.49163645       3.14863056      -1.92934026
C        2.29481413       3.97694026      -2.72977818
C        1.95287066       5.44056167      -2.87502489
N        1.21113281       5.67497279      -4.11383978
N        0.76659807       7.02497030      -4.21748854
C        1.50686321       8.16986635      -4.17777804
N        0.72220664       9.20938553      -4.35671572
N       -0.55927691       8.73561728      -4.54341318
C       -0.51225386       7.42365309      -4.46589750
C        3.38496768       3.40615937      -3.40107145
O        4.14480157       4.21510113      -4.20572854
C        3.67901627       2.04449063      -3.25738880
C        2.88521567       1.23302022      -2.44970335
H        0.62786057       3.56611795      -1.41458537
H        2.88004734       6.02735190      -2.84697913
H        1.36178009       5.75930018      -2.00657720
H        1.81368453       5.41941950      -4.89663110
H        2.57334259       8.19488170      -4.01628485
H       -1.33944827       6.74020720      -4.58381284
H        4.86444626       3.66603048      -4.57217756
H        3.11119163       0.17592019      -2.33727870
C        4.80181176       1.45893403      -3.94299346
C        5.74215298       0.96853037      -4.51718736
Br       7.26260521       0.17558913      -5.44561033
C       -1.79186446      -1.79186446      -1.79186446
C       -1.59776884      -3.17466938      -1.79716905
C       -2.40328786      -4.00258006      -2.59566466
C       -2.17619404      -5.49544195      -2.59682124
N       -1.36259293      -5.89103250      -3.74631995
N       -1.02721579      -7.27550740      -3.70633372
C       -1.86258155      -8.35168235      -3.64024370
N       -1.15718616      -9.46064958      -3.67047214
N        0.17045003      -9.10580432      -3.78439926
C        0.22876060      -7.79233192      -3.81372541
C       -3.38550548      -3.40738179      -3.39931124
O       -4.14600009      -4.21979170      -4.19983944
C       -3.57353191      -2.01966342      -3.38770037
C       -2.77931858      -1.20713502      -2.58148564
H       -0.81523490      -3.61318588      -1.18014311
H       -3.14907075      -6.00362817      -2.60167945
H       -1.68376405      -5.78465120      -1.65924222
H       -1.87843900      -5.65644284      -4.59485328
H       -2.93668639      -8.27966425      -3.56815850
H        1.11751308      -7.18794123      -3.91414363
H       -4.78579078      -3.64925510      -4.66760842
H       -2.92307063      -0.12991703      -2.57140286
C       -4.58580715      -1.40845286      -4.20947923
C       -5.43358766      -0.89656402      -4.89771903
Br      -6.80437704      -0.06888306      -6.01054457
C       -1.79186446       1.79186446       1.79186446
C       -3.08123164       1.36813139       2.12024424
C       -3.90422784       2.16157236       2.93573238
C       -5.29909285       1.69363634       3.27572803
N       -6.28203841       2.32354927       2.39435770
N       -7.59296994       1.80742814       2.60865883
C       -8.31561424       1.77393870       3.76495466
N       -9.50135460       1.25722491       3.52972838
N       -9.56888858       0.96764980       2.18321518
C       -8.41947469       1.31253790       1.64528414
C       -3.41010447       3.39219687       3.38989716
O       -4.23162257       4.17507626       4.15893241
C       -2.11561585       3.80934957       3.05593028
C       -1.30064669       3.00913770       2.25815484
H       -3.45143884       0.41771701       1.73940805
H       -5.50379726       1.92066045       4.32992066
H       -5.34394730       0.60066734       3.18304283
H       -6.24757633       3.33123922       2.55091958
H       -7.94699782       2.11910815       4.71840317
H       -8.14525285       1.23522548       0.60409344
H       -3.72589491       4.97414475       4.40261463
H       -0.29597916       3.33119351       1.99721785
C       -1.60598939       5.07128314       3.52646671
C       -1.17917723       6.12815251       3.92054097
Br      -0.48905807       7.83702089       4.55772571
C        1.79186446      -1.79186446       1.79186446
C        3.14692440      -1.48695855       1.93572433
C        3.97209142      -2.28151974       2.74792141
C        5.43725699      -1.94381000       2.88739023
N        6.24317470      -2.76900833       1.98776236
N        7.61596644      -2.38696999       2.00612049
C        8.46571143      -2.31800060       3.07079556
N        9.66344725      -1.96713672       2.65772391
N        9.60586672      -1.82674166       1.28714517
C        8.37321597      -2.09122345       0.91285731
C        3.40962901      -3.39448062       3.38808887
O        4.22910542      -4.18319802       4.15332779
C        2.04954392      -3.69287120       3.23848058
C        1.23502848      -2.89072186       2.44218889
H        3.56660477      -0.62919532       1.41276380
H        5.73682625      -2.08349460       3.93405751
H        5.58301138      -0.87843782       2.66620827
H        6.12373603      -3.74475419       2.26124491
H        8.17512959      -2.51918695       4.09019260
H        7.99109515      -2.09019126      -0.09671463
H        3.67533992      -4.88997055       4.53734383
H        0.17942599      -3.12080371       2.32416082
C        1.47042545      -4.83331854       3.89999525
C        0.98541373      -5.78844319       4.45401379
Br       0.20119080      -7.33279896       5.34981491
C       -0.00445707       0.01189536      -1.78238275
H       -0.66409135       0.67374010      -2.43557963
H        0.65740317      -0.63156657      -2.45157240
C       -0.90989263      -0.90692880      -0.91072765
C        0.90977584       0.90977584      -0.90977584
C       -0.00465871       1.77757030       0.00794375
H       -0.66225468       2.44313916      -0.64384735
H        0.64322798       2.43503045       0.67728295
C       -1.78241447       0.00034974      -0.00472694
H       -2.45427497      -0.65498947       0.64260836
H       -2.43311707       0.67328779      -0.65473579
C       -0.91132561       0.90220522       0.91563759
C       -0.01476271      -0.02253852       1.78660255
H       -0.67934791      -0.69751639       2.42135241
H        0.63392994       0.61504881       2.47327442
C        0.01484550      -1.77751727      -0.01636693
H        0.67870853      -2.42144646      -0.68295456
H       -0.62264859      -2.45592969       0.64226336
C        1.78714474       0.01002794       0.00389507
H        2.44202412       0.67113390       0.66197326
H        2.45385902      -0.65136977      -0.64189061
C        0.91606151      -0.90478549       0.90901405
