190
Properties=species:S:1:pos:R:3 pbc="F F F"
F       10.44636006       3.30665928      -6.78216799
C        9.39483887       3.93950065      -6.24167214
C        9.21890222       3.92080622      -4.86493544
C        8.12658323       4.58438216      -4.30686990
C        7.21091700       5.27673765      -5.12018966
C        7.40384895       5.26735138      -6.51131886
C        8.49660128       4.60146518      -7.07085649
C        6.03252359       6.03738316      -4.51306799
H        5.44032770       6.48605734      -5.32108833
C        6.47333293       7.11975152      -3.52883253
C        6.11994237       6.51253224      -2.20815641
N        5.24247894       5.50003309      -2.32293629
N        5.15949015       5.16752031      -3.73263401
C        4.21794550       4.31210345      -4.28031093
O        4.00922621       4.23748564      -5.49431662
C        3.39728746       3.44096803      -3.38557812
C        3.92015115       2.83994782      -2.23410116
C        3.11624810       2.02963374      -1.42749940
C        1.79245827       1.79245827      -1.79245827
C        1.26763062       2.34912743      -2.95820634
C        2.07191074       3.16924994      -3.75522635
C        6.72038495       6.87825804      -0.92005854
C        6.50118754       6.09490090       0.22536349
C        7.10513256       6.40411477       1.44730034
C        7.93751112       7.51390639       1.53708783
Br       8.77007412       7.93350162       3.18226387
C        8.16437676       8.31483003       0.42109903
C        7.55619011       7.99620454      -0.79880115
H        9.91994012       3.39109793      -4.23106478
H        7.96901098       4.56306652      -3.22912480
H        6.68957475       5.76996665      -7.15905623
H        8.64363501       4.59108124      -8.14450411
H        5.87951712       8.03107345      -3.67319389
H        7.53127144       7.38179937      -3.62827981
H        4.95715537       3.01744718      -1.95861851
H        3.53666328       1.60191839      -0.52244436
H        0.24078321       2.15950680      -3.25438256
H        1.67034257       3.61009776      -4.66452788
H        5.85765134       5.21970300       0.15867293
H        6.91769349       5.76742562       2.30579403
H        8.81137382       9.18384362       0.48089921
H        7.74367690       8.63213095      -1.65862200
F       -4.39340302     -10.94122718      -5.20055714
C       -4.46052685      -9.63209695      -5.48338785
C       -3.29621553      -8.93448430      -5.77394404
C       -3.37138413      -7.57422408      -6.07222708
C       -4.61000358      -6.90730838      -6.09053234
C       -5.77106569      -7.63322377      -5.77822973
C       -5.69614611      -8.99508273      -5.47769410
C       -4.70449663      -5.42557120      -6.45290691
H       -5.75276349      -5.10640996      -6.38829992
C       -4.15369019      -5.12268680      -7.84553999
C       -2.85247399      -4.45327302      -7.53488401
N       -2.78968867      -4.00827782      -6.26748183
N       -3.91377828      -4.58857754      -5.55728865
C       -4.31006260      -4.21701617      -4.28328111
O       -5.40008976      -4.53863763      -3.80230107
C       -3.40444851      -3.38065768      -3.43872742
C       -2.01382368      -3.54396157      -3.43641488
C       -1.20500318      -2.74073864      -2.62763942
C       -1.79245827      -1.79245827      -1.79245827
C       -3.17843497      -1.64526982      -1.75125961
C       -3.98267482      -2.44231750      -2.57139471
C       -1.70634358      -4.36526633      -8.44709161
C       -0.45156965      -3.93140133      -7.98775397
C        0.66013431      -3.88830741      -8.83377389
C        0.52434749      -4.27715643     -10.16152073
Br       2.02512385      -4.23524579     -11.31118994
C       -0.70956539      -4.70119104     -10.64735134
C       -1.81689705      -4.74233806      -9.79196069
H       -2.33827339      -9.44051868      -5.76331076
H       -2.46270292      -7.01257493      -6.28592445
H       -6.73397154      -7.12855066      -5.75607542
H       -6.59149225      -9.55455595      -5.23317217
H       -4.80590800      -4.41088356      -8.36699290
H       -4.05544670      -6.01656056      -8.46934336
H       -1.55944193      -4.29322805      -4.08055108
H       -0.12720176      -2.86512615      -2.66869812
H       -3.64331669      -0.91646111      -1.09489477
H       -5.06426587      -2.33252258      -2.54817975
H       -0.33735238      -3.63439051      -6.94693851
H        1.61400178      -3.55643583      -8.43689102
H       -0.82640098      -5.00567115     -11.68224611
H       -2.77160908      -5.07498927     -10.18783150
F      -10.67934893       3.61624700       6.23959140
C       -9.54495064       4.20190942       5.82915160
C       -9.26267356       4.27015764       4.47181267
C       -8.08407829       4.88443940       4.04931760
C       -7.18731154       5.44094751       4.97958525
C       -7.48967635       5.34507101       6.34777183
C       -8.66898773       4.72841895       6.77151628
C       -5.91216573       6.14852593       4.52228309
H       -5.35439967       6.48870356       5.40437014
C       -6.19348936       7.33142890       3.59699872
C       -5.78227671       6.79645638       2.26189793
N       -4.99305774       5.71214457       2.36024600
N       -5.04621356       5.27186960       3.74156131
C       -4.21598188       4.30699322       4.28738478
O       -4.10981385       4.12750228       5.50371234
C       -3.39316680       3.44157087       3.38909594
C       -3.86602479       2.96958602       2.15858933
C       -3.06237766       2.15950665       1.35149692
C       -1.79245827       1.79245827       1.79245827
C       -1.32201978       2.21915059       3.03379403
C       -2.12456740       3.03971220       3.83210743
C       -6.25074075       7.30172151       0.96623927
C       -5.99966950       6.58941059      -0.21835515
C       -6.48097553       7.03392819      -1.45295674
C       -7.22022709       8.20957775      -1.51547516
Br      -7.88732005       8.81285706      -3.17886524
C       -7.47531220       8.94211216      -0.35931659
C       -6.99031693       8.48805167       0.87282720
H       -9.94833173       3.84527126       3.74849984
H       -7.84386417       4.92965628       2.98768185
H       -6.79393623       5.74096192       7.08369948
H       -8.90072028       4.65115421       7.82734588
H       -5.54784926       8.17999398       3.85594121
H       -7.23396031       7.66823062       3.63915969
H       -4.86225820       3.24810909       1.82285377
H       -3.44016445       1.83369883       0.38716276
H       -0.33840531       1.92786481       3.38840245
H       -1.76489263       3.37975396       4.80032162
H       -5.42917453       5.66359539      -0.17408852
H       -6.27340786       6.44894788      -2.34303066
H       -8.05024456       9.86154819      -0.39747452
H       -7.19809267       9.07218034       1.76415684
F        6.58252714     -10.53934918       3.41331101
C        6.08940625      -9.45586631       4.03073909
C        4.71806968      -9.24153342       4.04504077
C        4.20938985      -8.11593866       4.69250678
C        5.06696569      -7.20496239       5.33591622
C        6.45141828      -7.43746000       5.29364091
C        6.96149157      -8.56359323       4.64383816
C        4.51439543      -5.98929191       6.07928740
H        5.35084263      -5.40810338       6.48852736
C        3.54947276      -6.37198663       7.20045759
C        2.22235438      -5.99816095       6.62011570
N        2.33252728      -5.15256579       5.58035524
N        3.73397889      -5.11879750       5.20686808
C        4.28293279      -4.21711746       4.31030963
O        5.49962824      -4.04505351       4.19634671
C        3.38682624      -3.39575058       3.44125679
C        2.20478244      -3.90212128       2.88729641
C        1.39800095      -3.09831851       2.07706178
C        1.79245827      -1.79245827       1.79245827
C        2.98755821      -1.28575318       2.30165301
C        3.78503325      -2.08939042       3.12196335
C        0.92907760      -6.55151090       7.03811302
C       -0.23162103      -6.32160224       6.28074373
C       -1.46048809      -6.88188714       6.64054794
C       -1.54168509      -7.68045818       7.77555659
Br      -3.19663463      -8.45413293       8.26381357
C       -0.41010988      -7.91670973       8.55150792
C        0.81657213      -7.35238833       8.18223533
H        4.05033541      -9.93865330       3.55311412
H        3.13622994      -7.92850865       4.69646371
H        7.13260502      -6.72825474       5.75773787
H        8.02994875      -8.74125106       4.60802056
H        3.73594774      -5.75759525       8.09024148
H        3.62709591      -7.42469005       7.48956466
H        1.90594846      -4.92560426       3.10166834
H        0.46992737      -3.50453047       1.68656819
H        3.30644561      -0.27334033       2.07488663
H        4.71720266      -1.70176896       3.52599658
H       -0.17205735      -5.70460028       5.38613847
H       -2.33119888      -6.68780511       6.02271885
H       -0.46305945      -8.53753585       9.43984183
H        1.68858609      -7.54657672       8.79926704
C       -0.00445707       0.01189536      -1.78238275
H       -0.66409135       0.67374010      -2.43557963
H        0.65740317      -0.63156657      -2.45157240
C       -0.90989263      -0.90692880      -0.91072765
C        0.90977584       0.90977584      -0.90977584
C       -0.00465871       1.77757030       0.00794375
H       -0.66225468       2.44313916      -0.64384735
H        0.64322798       2.43503045       0.67728295
C       -1.78241447       0.00034974      -0.00472694
H       -2.45427497      -0.65498947       0.64260836
H       -2.43311707       0.67328779      -0.65473579
C       -0.91132561       0.90220522       0.91563759
C       -0.01476271      -0.02253852       1.78660255
H       -0.67934791      -0.69751639       2.42135241
H        0.63392994       0.61504881       2.47327442
C        0.01484550      -1.77751727      -0.01636693
H        0.67870853      -2.42144646      -0.68295456
H       -0.62264859      -2.45592969       0.64226336
C        1.78714474       0.01002794       0.00389507
H        2.44202412       0.67113390       0.66197326
H        2.45385902      -0.65136977      -0.64189061
C        0.91606151      -0.90478549       0.90901405
