177
Properties=species:S:1:pos:R:3 pbc="F F F"
C        0.00000000       0.00000000       0.00000000
F        9.53645604       2.39675526      -5.87226397
C        8.48493484       3.02959662      -5.33176811
C        8.30899820       3.01090219      -3.95503141
C        7.21667920       3.67447814      -3.39696587
C        6.30101297       4.36683362      -4.21028563
C        6.49394493       4.35744735      -5.60141484
C        7.58669726       3.69156115      -6.16095247
C        5.12261957       5.12747914      -3.60316397
H        4.53042368       5.57615332      -4.41118431
C        5.56342890       6.20984750      -2.61892850
C        5.21003835       5.60262822      -1.29825239
N        4.33257491       4.59012907      -1.41303226
N        4.24958613       4.25761628      -2.82272999
C        3.30804148       3.40219942      -3.37040691
O        3.09932218       3.32758161      -4.58441259
C        2.48738343       2.53106401      -2.47567409
C        3.01024713       1.93004379      -1.32419714
C        2.20634407       1.11972972      -0.51759537
C        0.88255425       0.88255425      -0.88255425
C        0.35772660       1.43922341      -2.04830232
C        1.16200671       2.25934591      -2.84532233
C        5.81048092       5.96835402      -0.01015451
C        5.59128351       5.18499687       1.13526751
C        6.19522853       5.49421075       2.35720437
C        7.02760710       6.60400237       2.44699186
C        7.25447274       7.40492601       1.33100305
C        6.64628609       7.08630051       0.11110287
H        9.01003609       2.48119390      -3.32116075
H        7.05910695       3.65316250      -2.31922078
H        5.77967073       4.86006263      -6.24915221
H        7.73373099       3.68117722      -7.23460009
H        4.96961310       7.12116942      -2.76328987
H        6.62136742       6.47189535      -2.71837578
H        4.04725135       2.10754316      -1.04871448
H        2.62675926       0.69201437       0.38745967
H       -0.66912081       1.24960277      -2.34447854
H        0.76043855       2.70019373      -3.75462386
H        4.94774731       4.30979898       1.06857696
H        6.00778946       4.85752160       3.21569806
H        7.90146980       8.27393959       1.39080323
H        6.83377287       7.72222693      -0.74871797
C        7.66161028       6.92352739       3.69980618
C        8.19258795       7.19112960       4.74903817
Br       9.05113393       7.62381974       6.44555756
F       -1.81647901      -7.83906787      -8.14992838
C       -2.47507695      -6.86288821      -7.50833442
C       -2.06616336      -5.54550660      -7.66326184
C       -2.75706949      -4.53313218      -6.99792154
C       -3.86431562      -4.83107839      -6.18273821
C       -4.24794140      -6.17362490      -6.03124082
C       -3.55527149      -7.18803116      -6.69590822
C       -4.64925948      -3.72376102      -5.48024217
H       -5.45487367      -4.17566394      -4.88722370
C       -5.23208684      -2.70334389      -6.45677418
C       -4.34101702      -1.51965130      -6.25025063
N       -3.65137207      -1.58658102      -5.09778315
N       -3.80826279      -2.93516510      -4.58650451
C       -3.41426801      -3.34334377      -3.32303602
O       -3.77631723      -4.41193585      -2.82306331
C       -2.52388211      -2.46637540      -2.50386403
C       -1.48636762      -1.71243303      -3.06568741
C       -0.67571851      -0.90754995      -2.26040071
C       -0.88255425      -0.88255425      -0.88255425
C       -1.88421918      -1.65940070      -0.30163245
C       -2.70078930      -2.45328961      -1.11259605
C       -4.13164973      -0.43786715      -7.21947257
C       -3.10221781       0.50113297      -7.03992803
C       -2.86085138       1.50771143      -7.97909496
C       -3.65841931       1.58863028      -9.11482857
C       -4.69295723       0.67841061      -9.31384907
C       -4.92601966      -0.32716614      -8.36829793
H       -1.21526520      -5.30701975      -8.29010580
H       -2.43546617      -3.49717697      -7.09884709
H       -5.08137993      -6.42705443      -5.38045120
H       -3.84889617      -8.22433209      -6.57628004
H       -6.25495799      -2.43582499      -6.16328941
H       -5.25647873      -3.06610589      -7.48905394
H       -1.31998501      -1.74353495      -4.13998903
H        0.10087304      -0.30745404      -2.72473296
H       -2.04357894      -1.65336917       0.77198761
H       -3.48637967      -3.06014101      -0.66873546
H       -2.46892855       0.43705300      -6.15709378
H       -2.04912561       2.20715678      -7.80764417
H       -5.32191343       0.73361455     -10.19630728
H       -5.73744997      -1.02802608      -8.53924172
C       -3.40978341       2.61657631     -10.09212440
C       -3.20155083       3.47748111     -10.91060966
Br      -2.86485638       4.86949136     -12.23403110
F       -9.43039056       6.08077050       2.29431420
C       -8.16421204       5.96225411       2.71983343
C       -7.12151558       6.28941847       1.86399775
C       -5.80645775       6.16921928       2.31244619
C       -5.52757583       5.73073034       3.61982606
C       -6.60052169       5.39190321       4.46038222
C       -7.91763150       5.51039254       4.01118685
C       -4.09052550       5.63208381       4.13065336
H       -4.10112097       5.25511976       5.16152057
C       -3.35112128       6.96794569       4.07313794
C       -2.42630583       6.77059287       2.91402026
N       -2.26676257       5.47406486       2.59490881
N       -3.27923537       4.73027309       3.32042394
C       -3.31896355       3.34893598       3.41274828
O       -4.03043520       2.75400417       4.22687702
C       -2.46488799       2.51989628       2.50933726
C       -2.22671286       2.86449106       1.17328414
C       -1.42311572       2.05728792       0.36326552
C       -0.88255425       0.88255425       0.88255425
C       -1.14389917       0.50282194       2.19853122
C       -1.93797691       1.31989807       3.00879998
C       -1.82417244       7.84655299       2.11826402
C       -1.16479913       7.56644125       0.90977249
C       -0.62865914       8.58571590       0.11785987
C       -0.74320302       9.90706824       0.53434635
C       -1.38178474      10.21369386       1.73291709
C       -1.91690111       9.18605649       2.51852613
H       -7.32731947       6.62909291       0.85597837
H       -4.97943577       6.40749748       1.64455698
H       -6.40447946       5.02088545       5.46352065
H       -8.74553403       5.24556891       4.65840535
H       -2.75641708       7.11405348       4.98360183
H       -4.02421362       7.82393451       3.96349042
H       -2.65999190       3.77582853       0.76768856
H       -1.22721067       2.36381271      -0.65970942
H       -0.73534587      -0.41646197       2.60607660
H       -2.14473117       1.03334208       4.03718288
H       -1.08011886       6.53451694       0.57433353
H       -0.13580933       8.32760733      -0.81380365
H       -1.47546549      11.24161862       2.06752205
H       -2.41093638       9.44325562       3.45052578
C       -0.20237513      10.96377021      -0.28081385
C        0.25056822      11.84875811      -0.96351051
Br       0.98293931      13.27970870      -2.06737328
F        8.90046507      -6.93283087       1.97217932
C        7.72010275      -6.60718812       2.51900871
C        6.54693096      -6.89342251       1.83457834
C        5.32150303      -6.55732699       2.40929319
C        5.26221539      -5.94256547       3.67335136
C        6.46456826      -5.65040283       4.33783603
C        7.69211592      -5.98515823       3.76193673
C        3.92206872      -5.60518060       4.32601335
H        4.10598141      -5.11897647       5.29280342
C        3.03569214      -6.83413609       4.52237668
C        1.99919343      -6.65259864       3.45912689
N        1.94737609      -5.39054619       2.99781396
N        3.12110473      -4.70456493       3.50426274
C        3.32750978      -3.33794193       3.41519610
O        4.19911210      -2.75042305       4.06178124
C        2.46434465      -2.51409314       2.51568374
C        2.02101014      -2.97383064       1.26964728
C        1.21700278      -2.16740283       0.45926356
C        0.88255425      -0.88255425       0.88255425
C        1.35012627      -0.39339479       2.10173127
C        2.14367270      -1.20831408       2.91468817
C        1.18352004      -7.72598984       2.87947957
C        0.41165061      -7.50219357       1.72716869
C       -0.33211717      -8.52767793       1.13667416
C       -0.31506359      -9.79751147       1.70216973
C        0.43207009     -10.04591081       2.85041480
C        1.17496940      -9.01276474       3.43374958
H        6.58337763      -7.36781203       0.86120110
H        4.39477044      -6.76221961       1.87450018
H        6.44064990      -5.14691544       5.30132023
H        8.62007753      -5.75654481       4.27288596
H        2.54890042      -6.80002605       5.50514592
H        3.58870134      -7.77559427       4.44734295
H        2.29383992      -3.97267131       0.93699776
H        0.85940506      -2.55974787      -0.48783897
H        1.10280566       0.61035364       2.43250847
H        2.51040128      -0.83641801       3.86843684
H        0.40174324      -6.51225627       1.27496982
H       -0.90717172      -8.31556473       0.24122000
H        0.45119152     -11.03314454       3.30027010
H        1.75133732      -9.22409454       4.32928592
C       -1.07061990     -10.86190115       1.09405025
C       -1.70339831     -11.75332750       0.58475020
Br      -2.72654747     -13.19468851      -0.23874492
