169
Properties=species:S:1:pos:R:3 pbc="F F F"
C        0.00000000       0.00000000       0.00000000
F        9.53645604       2.39675526      -5.87226397
C        8.48493484       3.02959662      -5.33176811
C        8.30899820       3.01090219      -3.95503141
C        7.21667920       3.67447814      -3.39696587
C        6.30101297       4.36683362      -4.21028563
C        6.49394493       4.35744735      -5.60141484
C        7.58669726       3.69156115      -6.16095247
C        5.12261957       5.12747914      -3.60316397
H        4.53042368       5.57615332      -4.41118431
C        5.56342890       6.20984750      -2.61892850
C        5.21003835       5.60262822      -1.29825239
N        4.33257491       4.59012907      -1.41303226
N        4.24958613       4.25761628      -2.82272999
C        3.30804148       3.40219942      -3.37040691
O        3.09932218       3.32758161      -4.58441259
C        2.48738343       2.53106401      -2.47567409
C        3.01024713       1.93004379      -1.32419714
C        2.20634407       1.11972972      -0.51759537
C        0.88255425       0.88255425      -0.88255425
C        0.35772660       1.43922341      -2.04830232
C        1.16200671       2.25934591      -2.84532233
C        5.81048092       5.96835402      -0.01015451
C        5.59128351       5.18499687       1.13526751
C        6.19522853       5.49421075       2.35720437
C        7.02760710       6.60400237       2.44699186
Br       7.86017009       7.02359760       4.09216789
C        7.25447274       7.40492601       1.33100305
C        6.64628609       7.08630051       0.11110287
H        9.01003609       2.48119390      -3.32116075
H        7.05910695       3.65316250      -2.31922078
H        5.77967073       4.86006263      -6.24915221
H        7.73373099       3.68117722      -7.23460009
H        4.96961310       7.12116942      -2.76328987
H        6.62136742       6.47189535      -2.71837578
H        4.04725135       2.10754316      -1.04871448
H        2.62675926       0.69201437       0.38745967
H       -0.66912081       1.24960277      -2.34447854
H        0.76043855       2.70019373      -3.75462386
H        4.94774731       4.30979898       1.06857696
H        6.00778946       4.85752160       3.21569806
H        7.90146980       8.27393959       1.39080323
H        6.83377287       7.72222693      -0.74871797
F       -9.19546819      -2.11992144      -6.49008563
C       -8.25361038      -2.78619758      -5.80649162
C       -8.19113454      -2.65802091      -4.42577636
C       -7.21301003      -3.35658914      -3.71852404
C       -6.29942413      -4.19280153      -4.38590656
C       -6.37504505      -4.29300142      -5.78476065
C       -7.35326956      -3.59223723      -6.49370409
C       -5.24868251      -4.99040204      -3.61417812
H       -4.63459704      -5.55754230      -4.32562196
C       -5.86517344      -5.93942465      -2.58760682
C       -5.56886258      -5.24687238      -1.29518399
N       -4.59718409      -4.32487877      -1.41367338
N       -4.36827914      -4.12886697      -2.83278629
C       -3.31137742      -3.40711677      -3.36215361
O       -2.99712560      -3.45980782      -4.55438296
C       -2.49229111      -2.52967975      -2.47215067
C       -3.05222120      -1.78609372      -1.42617314
C       -2.24796306      -0.97558441      -0.62012169
C       -0.88255425      -0.88255425      -0.88255425
C       -0.31549500      -1.58357194      -1.94618538
C       -1.12180420      -2.40292063      -2.74195013
C       -6.30427555      -5.44403309      -0.04068082
C       -6.11077410      -4.58137783       1.05113906
C       -6.83909632      -4.72812873       2.23499014
C       -7.77273723      -5.75266541       2.34078503
Br      -8.77290747      -5.95189462       3.93320228
C       -7.97786710      -6.62946659       1.27893799
C       -7.24465465      -6.47354178       0.09671271
H       -8.89153750      -2.01716325      -3.90369000
H       -7.14380435      -3.25125886      -2.63642702
H       -5.65791523      -4.90931461      -6.32165573
H       -7.40949566      -3.66660784      -7.57340479
H       -5.34607630      -6.90601484      -2.60198125
H       -6.93057568      -6.12100528      -2.76005759
H       -4.12021920      -1.85167674      -1.23161305
H       -2.70147131      -0.43469629       0.20485363
H        0.74522661      -1.50698535      -2.16320176
H       -0.68783471      -2.95566733      -3.57175410
H       -5.38762448      -3.77197622       0.97063137
H       -6.66662019      -4.03429207       3.05129925
H       -8.70332412      -7.43306567       1.35178363
H       -7.41699963      -7.16673719      -0.72098096
F       -9.89314208       2.95738102       4.95495216
C       -8.70902406       3.50048299       4.63679252
C       -8.34955155       3.62362438       3.30175588
C       -7.11921368       4.19346627       2.97544326
C       -6.24710544       4.65082474       3.98020205
C       -6.62863974       4.50067197       5.32349540
C       -7.85988343       3.92844087       5.65088657
C       -4.91373313       5.31021008       3.62931946
H       -4.38826080       5.57295712       4.55654338
C       -5.08199463       6.55326958       2.75694069
C       -4.62653842       6.06668678       1.41769376
N       -3.90134810       4.93707168       1.49731646
N       -4.05301266       4.42915298       2.84776676
C       -3.30526258       3.39311643       3.38226880
O       -3.27544992       3.14507466       4.59079180
C       -2.48052280       2.53174005       2.48185868
C       -2.90907105       2.15102069       1.20439632
C       -2.10556937       1.34113885       0.39696094
C       -0.88255425       0.88255425       0.88255425
C       -0.45936748       1.21768031       2.16820454
C       -1.26074624       2.03841055       2.96751817
C       -4.99632131       6.66356872       0.12909942
C       -4.71802458       6.00111372      -1.07812543
C       -5.10712035       6.53495177      -2.30983720
C       -5.77970262       7.75103960      -2.34612461
Br      -6.32227902       8.47567029      -4.00634951
C       -6.05939045       8.43535889      -1.16635364
C       -5.66697734       7.89193067       0.06257572
H       -9.01566373       3.27517099       2.52155603
H       -6.81910155       4.28057497       1.93181371
H       -5.95467396       4.81900391       6.11520769
H       -8.15288603       3.80921262       6.68740964
H       -4.40828553       7.35052901       3.09525785
H       -6.10429098       6.94398907       2.76335850
H       -3.86955765       2.50084962       0.83310172
H       -2.44631855       1.08712435      -0.60212894
H        0.48683745       0.85483609       2.55696185
H       -0.93753004       2.30741003       3.97031606
H       -4.19972542       5.04435147      -1.05510757
H       -4.88173786       5.98653648      -3.21866133
H       -6.58278107       9.38568600      -1.18386091
H       -5.89268046       8.43944288       0.97259444
F        9.45247869      -2.31420341       6.03879316
C        8.42891349      -2.95818329       5.45920280
C        8.28435880      -2.91107747       4.07949554
C        7.22114789      -3.58630095       3.48067438
C        6.30356863      -4.31856714       4.25599645
C        6.46411532      -4.33755539       5.65113642
C        7.52767090      -3.66004765       6.25149233
C        5.15775043      -5.09163381       3.60387843
H        4.55783946      -5.57277177       4.38715006
C        5.64653412      -6.14003760       2.60563318
C        5.30944730      -5.51013892       1.29133273
N        4.40593199      -4.52111941       1.40868484
N        4.28265781      -4.22395357       2.82332102
C        3.30882536      -3.40361936       3.36820309
O        3.07048235      -3.36248950       4.57834454
C        2.48868367      -2.53076403       2.47467383
C        3.02362148      -1.89085882       1.35000776
C        2.21962939      -1.08048457       0.54355521
C        0.88255425      -0.88255425       0.88255425
C        0.34427847      -1.47851443       2.02245943
C        1.14909960      -2.29845706       2.81911829
C        5.94787498      -5.83144330       0.00967116
C        5.73671460      -5.02654415      -1.12224587
C        6.37578506      -5.29284731      -2.33639745
C        7.23595911      -6.38073491      -2.43207641
Br       8.11588066      -6.74210697      -4.06638783
C        7.45587623      -7.20231998      -1.32980053
C        6.81239137      -6.92666003      -0.11756768
H        8.98712772      -2.35054922       3.47471381
H        7.08799543      -3.54320509       2.40028971
H        5.74715862      -4.87163749       6.27008945
H        7.64963723      -3.67160738       7.32826368
H        5.07121178      -7.06795384       2.71490677
H        6.70778691      -6.37990834       2.72394330
H        4.07059728      -2.03786522       1.09504649
H        2.65058367      -0.62196380      -0.34123351
H       -0.69330888      -1.31964744       2.29862194
H        0.73719400      -2.76976900       3.70829313
H        5.07134634      -4.16822591      -1.05060292
H        6.19321318      -4.64057289      -3.18417306
H        8.12439880      -8.05454005      -1.39433269
H        6.99496237      -7.57820233       0.73155308
