198
Properties=species:S:1:pos:R:3 pbc="F F F"
F       10.44636006       3.30665928      -6.78216799
C        9.39483887       3.93950065      -6.24167214
C        9.21890222       3.92080622      -4.86493544
C        8.12658323       4.58438216      -4.30686990
C        7.21091700       5.27673765      -5.12018966
C        7.40384895       5.26735138      -6.51131886
C        8.49660128       4.60146518      -7.07085649
C        6.03252359       6.03738316      -4.51306799
H        5.44032770       6.48605734      -5.32108833
C        6.47333293       7.11975152      -3.52883253
C        6.11994237       6.51253224      -2.20815641
N        5.24247894       5.50003309      -2.32293629
N        5.15949015       5.16752031      -3.73263401
C        4.21794550       4.31210345      -4.28031093
O        4.00922621       4.23748564      -5.49431662
C        3.39728746       3.44096803      -3.38557812
C        3.92015115       2.83994782      -2.23410116
C        3.11624810       2.02963374      -1.42749940
C        1.79245827       1.79245827      -1.79245827
C        1.26763062       2.34912743      -2.95820634
C        2.07191074       3.16924994      -3.75522635
C        6.72038495       6.87825804      -0.92005854
C        6.50118754       6.09490090       0.22536349
C        7.10513256       6.40411477       1.44730034
C        7.93751112       7.51390639       1.53708783
C        8.16437676       8.31483003       0.42109903
C        7.55619011       7.99620454      -0.79880115
H        9.91994012       3.39109793      -4.23106478
H        7.96901098       4.56306652      -3.22912480
H        6.68957475       5.76996665      -7.15905623
H        8.64363501       4.59108124      -8.14450411
H        5.87951712       8.03107345      -3.67319389
H        7.53127144       7.38179937      -3.62827981
H        4.95715537       3.01744718      -1.95861851
H        3.53666328       1.60191839      -0.52244436
H        0.24078321       2.15950680      -3.25438256
H        1.67034257       3.61009776      -4.66452788
H        5.85765134       5.21970300       0.15867293
H        6.91769349       5.76742562       2.30579403
H        8.81137382       9.18384362       0.48089921
H        7.74367690       8.63213095      -1.65862200
C        8.57151431       7.83343142       2.78990215
C        9.10249197       8.10103363       3.83913414
Br       9.96103795       8.53372377       5.53565354
F       -4.95840323     -10.96285048      -4.61393362
C       -4.87266033      -9.68663230      -5.01671902
C       -3.62492639      -9.12638237      -5.25333511
C       -3.54082072      -7.80026782      -5.67674674
C       -4.70224475      -7.03127651      -5.87432304
C       -5.95143372      -7.61775740      -5.61332807
C       -6.03614104      -8.94521582      -5.18756610
C       -4.61981480      -5.58925847      -6.37390147
H       -5.63367967      -5.17379432      -6.43999939
C       -3.92107188      -5.47312499      -7.72772011
C       -2.59358196      -4.89451013      -7.35253893
N       -2.60027924      -4.33574330      -6.12942577
N       -3.83388429      -4.74247017      -5.48329001
C       -4.30338918      -4.21522060      -4.29175009
O       -5.45779374      -4.39080923      -3.89242549
C       -3.39910164      -3.38419609      -3.44053588
C       -2.03662472      -3.66895684      -3.28861858
C       -1.22834431      -2.86568970      -2.47934722
C       -1.79245827      -1.79245827      -1.79245827
C       -3.15574548      -1.51985525      -1.89936367
C       -3.95787919      -2.31851037      -2.71999747
C       -1.36809597      -4.99739032      -8.15321523
C       -0.12270202      -4.63371677      -7.61430615
C        1.05843182      -4.77163900      -8.34873980
C        1.00356039      -5.27415035      -9.64373971
C       -0.21785288      -5.63250057     -10.20775432
C       -1.39529263      -5.49212455      -9.46377861
H       -2.72542668      -9.71178871      -5.10488742
H       -2.56651742      -7.34470205      -5.84998284
H       -6.85888875      -7.03007416      -5.72963473
H       -6.99974213      -9.39680882      -4.98266941
H       -4.45228192      -4.76045048      -8.37105206
H       -3.85534634      -6.42857073      -8.25743355
H       -1.60199631      -4.51455238      -3.81667237
H       -0.16835369      -3.08839620      -2.40427614
H       -3.60385370      -0.69242182      -1.35839704
H       -5.02146541      -2.11166877      -2.81183403
H       -0.07274027      -4.24822696      -6.59771416
H        2.00114579      -4.48850781      -7.89196305
H       -0.27166035      -6.02458758     -11.21807031
H       -2.33900921      -5.77585548      -9.91956516
C        2.21709420      -5.42877523     -10.40336254
C        3.23342877      -5.55827357     -11.03954665
Br       4.87675580      -5.76766143     -12.06820256
F       -9.32425993       2.75292387       8.45800352
C       -8.61003882       3.42360724       7.54236560
C       -8.72199445       3.08063592       6.20201350
C       -7.98098685       3.78406153       5.25278691
C       -7.13244575       4.83841462       5.63698393
C       -7.02618474       5.15519986       7.00113459
C       -7.76669199       4.44989366       7.95233731
C       -6.34584789       5.63815483       4.59897202
H       -5.73938396       6.39494140       5.11314801
C       -7.24776522       6.30966883       3.56448293
C       -7.02637905       5.46299488       2.35125709
N       -5.90968490       4.71874361       2.43701981
N       -5.45462991       4.79242369       3.81259088
C       -4.22985985       4.32309304       4.25740699
O       -3.76416749       4.61435825       5.36250273
C       -3.41116102       3.43539539       3.37727719
C       -3.98279305       2.45903610       2.55237098
C       -3.17776095       1.64838011       1.74724018
C       -1.79245827       1.79245827       1.79245827
C       -1.20439889       2.73115346       2.63941205
C       -2.01432960       3.54846367       3.43359376
C       -7.95304084       5.34628698       1.21937371
C       -7.77593424       4.35200491       0.24278579
C       -8.67747292       4.19866920      -0.81419513
C       -9.77207333       5.05046956      -0.90821320
C       -9.96706652       6.05201060       0.03903064
C       -9.05947595       6.19680931       1.09491053
H       -9.37403411       2.27082208       5.89724663
H       -8.04816487       3.51335110       4.19968632
H       -6.35170444       5.94582940       7.32106380
H       -7.68209658       4.69180593       9.00531785
H       -6.89754213       7.32872443       3.35751790
H       -8.29357750       6.36557315       3.88219998
H       -5.06366797       2.34108462       2.52846847
H       -3.64769966       0.92115446       1.09217192
H       -0.12566750       2.84102436       2.68798071
H       -1.56473598       4.28531508       4.09491714
H       -6.92571439       3.67653455       0.31643246
H       -8.50989162       3.41148091      -1.54204745
H      -10.81751047       6.72274874      -0.02594097
H       -9.22662942       6.98361715       1.82418328
C      -10.71099962       4.89257504      -1.98853109
C      -11.49735039       4.76033838      -2.89329732
Br     -12.76881308       4.54652289      -4.35622779
F        6.92427092     -10.37506506       3.23585135
C        6.35039082      -9.34732564       3.87829519
C        4.97103203      -9.19820463       3.83540722
C        4.37816386      -8.13064733       4.50902410
C        5.15912092      -7.21323496       5.23548843
C        6.55376124      -7.37849671       5.25026125
C        7.14815513      -8.44641174       4.57435608
C        4.51357403      -6.06255445       6.00684626
H        5.30053474      -5.46369169       6.48324695
C        3.51726427      -6.54432986       7.06032285
C        2.20197166      -6.20489384       6.43376553
N        2.31901876      -5.30516958       5.44125997
N        3.73304092      -5.18776052       5.13884303
C        4.27843132      -4.21860910       4.31331945
O        5.48923175      -3.98455710       4.26723960
C        3.38472225      -3.39839594       3.44071542
C        2.25604887      -3.93165849       2.80649278
C        1.44957447      -3.12767976       1.99612701
C        1.79245827      -1.79245827       1.79245827
C        2.93623137      -1.25606012       2.38267291
C        3.73294216      -2.06080163       3.20264324
C        0.91924564      -6.83782369       6.76163218
C       -0.21469563      -6.62553551       5.95988507
C       -1.43010317      -7.25952739       6.23252276
C       -1.52499046      -8.11564747       7.32367266
C       -0.42066270      -8.33653370       8.14223677
C        0.79280913      -7.69815285       7.86023382
H        4.36193569      -9.90080709       3.27936004
H        3.29809895      -7.99394064       4.46916271
H        7.17698653      -6.66184555       5.77976556
H        8.22453689      -8.57202776       4.58265571
H        3.63168215      -5.96621924       7.98588307
H        3.63277017      -7.60515639       7.30342407
H        1.99801822      -4.97724603       2.95795682
H        0.56175250      -3.55716262       1.54211091
H        3.21539028      -0.21997412       2.21930817
H        4.62512897      -1.65033858       3.66950066
H       -0.14372264      -5.96335240       5.09905163
H       -2.27948088      -7.07627994       5.58252602
H       -0.48455666      -9.00191627       8.99695863
H        1.64352947      -7.88140653       8.50949385
C       -2.77086230      -8.78050111       7.60540476
C       -3.81427998      -9.33731604       7.84135540
Br      -5.50139810     -10.23763867       8.22286761
C       -0.00445707       0.01189536      -1.78238275
H       -0.66409135       0.67374010      -2.43557963
H        0.65740317      -0.63156657      -2.45157240
C       -0.90989263      -0.90692880      -0.91072765
C        0.90977584       0.90977584      -0.90977584
C       -0.00465871       1.77757030       0.00794375
H       -0.66225468       2.44313916      -0.64384735
H        0.64322798       2.43503045       0.67728295
C       -1.78241447       0.00034974      -0.00472694
H       -2.45427497      -0.65498947       0.64260836
H       -2.43311707       0.67328779      -0.65473579
C       -0.91132561       0.90220522       0.91563759
C       -0.01476271      -0.02253852       1.78660255
H       -0.67934791      -0.69751639       2.42135241
H        0.63392994       0.61504881       2.47327442
C        0.01484550      -1.77751727      -0.01636693
H        0.67870853      -2.42144646      -0.68295456
H       -0.62264859      -2.45592969       0.64226336
C        1.78714474       0.01002794       0.00389507
H        2.44202412       0.67113390       0.66197326
H        2.45385902      -0.65136977      -0.64189061
C        0.91606151      -0.90478549       0.90901405
