117
Properties=species:S:1:pos:R:3 pbc="F F F"
C        0.00000000       0.00000000       0.00000000
C        0.88189998       0.88189998      -0.88189998
C        0.67774925       0.90508948      -2.25838304
C        1.48929591       1.70555476      -3.06168427
C        2.49819679       2.47674908      -2.48076271
O        3.29891955       3.24513474      -3.27562621
C        2.71328618       2.47212168      -1.09591435
C        1.88855340       1.65461328      -0.30121008
C        3.80371201       3.27961376      -0.42606234
H        3.67171161       3.28109577       0.66438350
C        3.85555647       4.76751934      -0.84550741
O        2.95144451       5.58795589      -0.79397081
N        5.16041534       5.04024007      -1.25299397
C        5.95574606       3.90710946      -1.19485783
C        7.28657266       3.80045513      -1.53909005
C        7.88824154       2.54669630      -1.39480817
C        7.14770168       1.45046400      -0.91470955
C        5.79931094       1.57848870      -0.57017096
C        5.21281510       2.82373514      -0.72343771
H       -0.10541189       0.30469860      -2.71360514
H        1.32521914       1.71177851      -4.13510631
H        2.96598436       3.21499194      -4.18770715
H        2.03230587       1.62292423       0.77714499
H        5.44620504       5.94956926      -1.58098500
H        7.85068244       4.64897014      -1.90822742
H        8.93654443       2.42547385      -1.65726795
H        5.22708701       0.73349971      -0.20151243
C        7.79342572       0.17112419      -0.77353549
C        8.33421960      -0.90032290      -0.65530222
Br       9.20863757      -2.63276223      -0.46412902
C       -0.88189998      -0.88189998      -0.88189998
C       -0.37172115      -2.06786522      -1.40163540
C       -1.17687670      -2.86718766      -2.21247059
C       -2.48628386      -2.47334632      -2.49607840
O       -3.26271906      -3.25308960      -3.30387185
C       -3.01953352      -1.28656866      -1.97522003
C       -2.19133213      -0.48970500      -1.16333964
C       -4.42675007      -0.81393474      -2.26870330
H       -4.69933383       0.02463719      -1.61372723
C       -5.52392150      -1.88414822      -2.06051350
O       -5.74780037      -2.53484242      -1.05072842
N       -6.27357106      -1.94598917      -3.23408915
C       -5.77659043      -1.08332447      -4.19779844
C       -6.25265139      -0.89542227      -5.47804417
C       -5.58766241       0.03741759      -6.27950119
C       -4.47934999       0.74647306      -5.77999830
C       -4.01180760       0.54263942      -4.47880242
C       -4.67476748      -0.38847611      -3.69674436
H        0.64744680      -2.37616126      -1.18417739
H       -0.76700157      -3.78758791      -2.61751448
H       -2.78860361      -4.07727874      -3.50280110
H       -2.57196638       0.44117929      -0.74729803
H       -7.04960625      -2.57918258      -3.34797048
H       -7.10671511      -1.44507049      -5.85609440
H       -5.93531676       0.21114663      -7.29511610
H       -3.15636426       1.08761622      -4.09335111
C       -3.81488820       1.70330343      -6.62650063
C       -3.25840146       2.50464886      -7.33544632
Br      -2.35860946       3.80035665      -8.48175155
C       -0.88189998       0.88189998       0.88189998
C       -0.51642896       2.20323025       1.12156256
C       -1.31971458       3.00370716       1.93311320
C       -2.48255352       2.47541453       2.49774053
O       -3.25490341       3.26057781       3.30419929
C       -2.87049997       1.14966320       2.26115904
C       -2.04537510       0.35482488       1.44417679
C       -4.11320925       0.53187444       2.86430442
H       -4.32862170      -0.43979658       2.39959876
C       -5.39989712       1.37349247       2.69519364
O       -5.88233979       1.79599645       1.65503497
N       -5.96563082       1.52828410       3.95973446
C       -5.18704164       0.93205023       4.93862148
C       -5.42678907       0.90326016       6.29606861
C       -4.49652184       0.23523412       7.09799005
C       -3.36775134      -0.37759427       6.52271816
C       -3.14221001      -0.33824883       5.14400941
C       -4.06731295       0.33180907       4.36086593
H        0.38883979       2.61670573       0.68502591
H       -1.02226688       4.03153184       2.11830524
H       -2.90871138       4.16812645       3.29184562
H       -2.31416225      -0.68078286       1.24470572
H       -6.81510810       2.04899079       4.11266041
H       -6.29821062       1.37746244       6.73220693
H       -4.65318207       0.19285571       8.17324844
H       -2.27136791      -0.80900008       4.69973131
C       -2.42707937      -1.06113144       7.37213748
C       -1.63926659      -1.63359382       8.08352615
Br      -0.36543995      -2.55921707       9.23378147
C        0.88189998      -0.88189998       0.88189998
C        2.26304441      -0.86697670       0.71120066
C        3.06496552      -1.67872623       1.51284319
C        2.47811626      -2.49838730       2.47920502
O        3.26864737      -3.30219597       3.24883717
C        1.08997452      -2.52068760       2.67066009
C        0.29575688      -1.69920034       1.84941955
C        0.41085448      -3.40395794       3.69457568
H       -0.64524174      -3.12458679       3.80907882
C        1.02089761      -3.33347458       5.11421103
O        1.19135856      -2.33879023       5.80322242
N        1.30200602      -4.63950226       5.51214110
C        0.99394871      -5.54980476       4.51395987
C        1.15776096      -6.91832017       4.55003670
C        0.77176274      -7.64090921       3.41707406
C        0.23856560      -6.97882683       2.29548280
C        0.07949230      -5.59042973       2.27804856
C        0.47133389      -4.88501417       3.40363988
H        2.72255641      -0.23151024      -0.04117480
H        4.14098378      -1.66372251       1.36739767
H        4.20135156      -3.10343098       3.06390090
H       -0.78615670      -1.69660678       1.96763503
H        1.71472246      -4.85609027       6.40594658
H        1.56913254      -7.42151516       5.41723229
H        0.88715172      -8.72218328       3.40995123
H       -0.32994959      -5.07889815       1.41315059
C       -0.15317964      -7.74823484       1.14303021
C       -0.48126629      -8.39261404       0.17785116
Br      -1.01175464      -9.43452072      -1.38276173
