86
Properties=species:S:1:pos:R:3 pbc="F F F"
O        1.29528600       4.77245873      -6.95532795
N        2.13622334       4.43969698      -5.87614688
C        1.44692384       3.65109746      -5.04098445
H        0.41653957       3.35964666      -5.22949189
C        2.07021319       3.13351395      -3.80346712
C        1.27810703       2.32082489      -2.97785788
C        1.79315579       1.79315579      -1.79315579
C        3.10269186       2.06049045      -1.40326990
C        3.90524643       2.86609689      -2.21106217
Br       5.68571940       3.20723467      -1.64506978
C        3.39620105       3.39910255      -3.40064171
O        4.20810560       4.18960202      -4.17825796
H        1.89704379       5.33211655      -7.47334074
H        0.25372706       2.10402217      -3.27017756
H        3.49588746       1.64640409      -0.48054395
H        3.62615071       4.43517159      -4.94253880
O       -7.42790871      -3.79857082      -1.79659315
N       -6.19222542      -3.78832670      -2.47151509
C       -5.33861597      -3.03774253      -1.76264725
H       -5.62250542      -2.54972981      -0.83344289
C       -3.94721285      -2.83728473      -2.22269668
C       -3.11880583      -2.03036130      -1.42762267
C       -1.79315579      -1.79315579      -1.79315579
C       -1.26255277      -2.35047838      -2.95342107
C       -2.07067508      -3.15540466      -3.75632575
Br      -1.31017977      -3.89737138      -5.33047270
C       -3.40112466      -3.39810729      -3.39671336
O       -4.17565779      -4.19496041      -4.20534738
H       -7.94497549      -4.36017816      -2.39734743
H       -3.52020855      -1.58876175      -0.51895648
H       -0.23069055      -2.16129852      -3.23084643
H       -5.05265339      -4.20824897      -3.74295874
O       -2.08974790       3.38161162       7.55171315
N       -2.65993782       3.52032971       6.27179967
C       -1.95219018       2.76815226       5.41866331
H       -1.09495799       2.17777226       5.73294787
C       -2.31381212       2.70768963       3.98569252
C       -1.51700351       1.90323335       3.15655294
C       -1.79315579       1.79315579       1.79315579
C       -2.86377583       2.47798238       1.22469400
C       -3.66710025       3.28231167       2.03299357
Br      -5.11775897       4.19991789       1.22034699
C       -3.39678811       3.39800098       3.40115623
O       -4.20395101       4.19694649       4.17506808
H       -2.67779707       3.96128966       8.06341435
H       -0.67771568       1.36295573       3.58725537
H       -3.07202670       2.38719064       0.16361817
H       -3.81085736       4.11167556       5.08132818
O        7.18199402      -4.36805046       1.47302819
N        6.03030669      -4.16465140       2.25710911
C        5.18209581      -3.39933239       1.55757755
H        5.41207065      -3.03389717       0.55971031
C        3.87176188      -3.01166526       2.12376712
C        3.04481041      -2.20137095       1.33060844
C        1.79315579      -1.79315579       1.79315579
C        1.33656436      -2.17950374       3.05038412
C        2.14444304      -2.98495599       3.85300646
Br       1.48610747      -3.49084867       5.56106771
C        3.40094853      -3.39855514       3.39644165
O        4.17693841      -4.19195630       4.20707086
H        7.70360487      -4.92128877       2.07760743
H        3.38887794      -1.89224183       0.34680701
H        0.36198582      -1.85793062       3.40291906
H        4.99549014      -4.34069800       3.66767296
C       -0.00445707       0.01189536      -1.78238275
H       -0.66409135       0.67374010      -2.43557963
H        0.65740317      -0.63156657      -2.45157240
C       -0.90989263      -0.90692880      -0.91072765
C        0.90977584       0.90977584      -0.90977584
C       -0.00465871       1.77757030       0.00794375
H       -0.66225468       2.44313916      -0.64384735
H        0.64322798       2.43503045       0.67728295
C       -1.78241447       0.00034974      -0.00472694
H       -2.45427497      -0.65498947       0.64260836
H       -2.43311707       0.67328779      -0.65473579
C       -0.91132561       0.90220522       0.91563759
C       -0.01476271      -0.02253852       1.78660255
H       -0.67934791      -0.69751639       2.42135241
H        0.63392994       0.61504881       2.47327442
C        0.01484550      -1.77751727      -0.01636693
H        0.67870853      -2.42144646      -0.68295456
H       -0.62264859      -2.45592969       0.64226336
C        1.78714474       0.01002794       0.00389507
H        2.44202412       0.67113390       0.66197326
H        2.45385902      -0.65136977      -0.64189061
C        0.91606151      -0.90478549       0.90901405
