73
Properties=species:S:1:pos:R:3 pbc="F F F"
C        0.00000000       0.00000000       0.00000000
O        0.38538197       3.86255470      -6.04542393
N        1.22631932       3.52979296      -4.96624286
C        0.53701982       2.74119344      -4.13108043
H       -0.49336445       2.44974263      -4.31958787
C        1.16030916       2.22360993      -2.89356310
C        0.36820301       1.41092086      -2.06795386
C        0.88325176       0.88325176      -0.88325176
C        2.19278784       1.15058642      -0.49336588
C        2.99534241       1.95619286      -1.30115815
C        2.48629703       2.48919853      -2.49073769
O        3.29820157       3.27969800      -3.26835393
H        0.98713976       4.42221253      -6.56343671
H       -0.65617697       1.19411814      -2.36027353
H        2.58598344       0.73650006       0.42936007
H        2.71624668       3.52526756      -4.03263478
C        4.34535079       2.21485383      -0.87200562
C        5.47598280       2.43148240      -0.51259038
Br       7.30411914       2.78175246       0.06855366
O       -5.89124488      -4.10091586      -0.30119986
N       -4.86931433      -3.67964468      -1.17339612
C       -4.03000080      -2.89746277      -0.48183011
H       -4.17702569      -2.67014410       0.57120374
C       -2.84509097      -2.29854795      -1.13384327
C       -2.02039374      -1.48444892      -0.34223507
C       -0.88325176      -0.88325176      -0.88325176
C       -0.54118061      -1.07666474      -2.21889479
C       -1.34869117      -1.88270670      -3.02129555
C       -2.49076213      -2.48916075      -2.48631037
O       -3.26902692      -3.27865756      -3.29856903
H       -6.41937542      -4.64493162      -0.90848196
H       -2.27574006      -1.32480709       0.70233244
H        0.34474637      -0.60568708      -2.63218272
H       -3.99704062      -3.58029621      -2.69681219
C       -0.96939181      -2.06429456      -4.39852387
C       -0.65172860      -2.21637439      -5.55195259
Br      -0.13809405      -2.46227462      -7.41694927
O       -0.44069014       3.72566185       6.12700861
N       -1.26272409       3.43933634       5.02029471
C       -0.57223018       2.65427028       4.18279322
H        0.44600811       2.33334530       4.38862886
C       -1.17728175       2.18169060       2.91850983
C       -0.38484823       1.36981184       2.09241766
C       -0.88325176       0.88325176       0.88325176
C       -2.17613834       1.19168731       0.46891449
C       -2.97874804       1.99716717       1.27677821
C       -2.48633629       2.48909103       2.49080593
O       -3.29791389       3.28041999       3.26791963
H       -1.04140686       4.28733968       6.64404247
H        0.62663391       1.12116440       2.40368422
H       -2.55644807       0.80942695      -0.47275159
H       -2.72910251       3.49342943       4.05161708
C       -4.31133153       2.29885767       0.82202104
C       -5.42737020       2.55152347       0.44116191
Br      -7.23191035       2.96006269      -0.17465509
O        6.44162140      -3.08831634       0.76342286
N        5.23205910      -3.01034207       1.47995397
C        4.38007542      -2.25461418       0.77460409
H        4.64716645      -1.80959745      -0.18079785
C        3.01386517      -1.98851887       1.27509815
C        2.18591026      -1.18041367       0.48075380
C        0.88325176      -0.88325176       0.88325176
C        0.37564697      -1.38062952       2.08046365
C        1.18369274      -2.18574058       2.88326010
C        2.49116685      -2.48835988       2.48670652
O        3.26615066      -3.28400358       3.29609927
H        6.96014888      -3.64696837       1.36567176
H        2.56949720      -0.78525893      -0.45654142
H       -0.63841643      -1.14503233       2.38650753
H        4.12499561      -3.34477853       2.80437489
C        0.63113091      -2.68556466       4.11551467
C        0.16836038      -3.10416734       5.14752786
Br      -0.57990043      -3.78101246       6.81620592
