94
Properties=species:S:1:pos:R:3 pbc="F F F"
O        1.29528600       4.77245873      -6.95532795
N        2.13622334       4.43969698      -5.87614688
C        1.44692384       3.65109746      -5.04098445
H        0.41653957       3.35964666      -5.22949189
C        2.07021319       3.13351395      -3.80346712
C        1.27810703       2.32082489      -2.97785788
C        1.79315579       1.79315579      -1.79315579
C        3.10269186       2.06049045      -1.40326990
C        3.90524643       2.86609689      -2.21106217
C        3.39620105       3.39910255      -3.40064171
O        4.20810560       4.18960202      -4.17825796
H        1.89704379       5.33211655      -7.47334074
H        0.25372706       2.10402217      -3.27017756
H        3.49588746       1.64640409      -0.48054395
H        3.62615071       4.43517159      -4.94253880
C        5.25525481       3.12475786      -1.78190965
C        6.38588682       3.34138642      -1.42249441
Br       8.21402316       3.69165649      -0.84135036
O       -7.58735442      -3.21245562      -2.22326263
N       -6.29691369      -3.40113681      -2.75401671
C       -5.44029056      -2.66550777      -2.03320742
H       -5.75963302      -2.05112268      -1.19492243
C       -3.99620900      -2.65777767      -2.35320759
C       -3.16685826      -1.85432358      -1.55560796
C       -1.79315579      -1.79315579      -1.79315579
C       -1.21447407      -2.52648689      -2.82549126
C       -2.02276268      -3.33086823      -3.62877458
C       -3.40123016      -3.39765012      -3.39706504
O       -4.17483585      -4.19804865      -4.20308107
H       -8.10100555      -3.78287916      -2.81861637
H       -3.60550214      -1.27635528      -0.74606936
H       -0.14541327      -2.47359239      -3.00382984
H       -5.08970097      -4.07193769      -3.84222244
C       -1.39582521      -4.07771307      -4.68838403
C       -0.87076507      -4.70319563      -5.57580695
Br      -0.02178725      -5.71454802      -7.01069475
O       -2.58356572       2.80477413       7.63473282
N       -2.98585878       3.13880844       6.32739998
C       -2.26599874       2.40210533       5.47090168
H       -1.51573573       1.68812373       5.80181866
C       -2.46512719       2.53114110       4.01092597
C       -1.66539561       1.73009930       3.18129489
C       -1.79315579       1.79315579       1.79315579
C       -2.71539252       2.65106316       1.19999653
C       -3.51918441       3.45486907       2.00835201
C       -3.39716456       3.39753752       3.40124324
O       -4.20135749       4.19999888       4.17460921
H       -3.16371659       3.39239966       8.14638482
H       -0.94106855       1.05571449       3.63114374
H       -2.80876207       2.69431078       0.11976265
H       -3.92568743       3.97749739       5.10067628
C       -4.46378752       4.33184312       1.36629167
C       -5.25489262       5.06630889       0.82856614
Br      -6.53404266       6.25387793      -0.04089057
O        7.28611049      -4.15046029       1.58650189
N        6.09889271      -4.02084914       2.33232536
C        5.24834338      -3.26118290       1.62947947
H        5.50109105      -2.84893576       0.65565131
C        3.90369848      -2.94504044       2.15845534
C        3.07613075      -2.13603409       1.36462496
C        1.79315579      -1.79315579       1.79315579
C        1.30523888      -2.24482647       3.01638685
C        2.11321982      -3.05007815       3.81910752
C        3.40102405      -3.39838362       3.39653766
O        4.17639531      -4.19310452       4.20646575
H        7.80584836      -4.70687431       2.18977841
H        3.44446592      -1.77629299       0.40716787
H        0.30641352      -1.97383629       3.34258569
H        5.01969389      -4.29009034       3.69407687
C        1.58126331      -3.50205016       5.07860884
C        1.13574973      -3.88057672       6.13344120
Br       0.41539196      -4.49262215       7.83901590
C       -0.00445707       0.01189536      -1.78238275
H       -0.66409135       0.67374010      -2.43557963
H        0.65740317      -0.63156657      -2.45157240
C       -0.90989263      -0.90692880      -0.91072765
C        0.90977584       0.90977584      -0.90977584
C       -0.00465871       1.77757030       0.00794375
H       -0.66225468       2.44313916      -0.64384735
H        0.64322798       2.43503045       0.67728295
C       -1.78241447       0.00034974      -0.00472694
H       -2.45427497      -0.65498947       0.64260836
H       -2.43311707       0.67328779      -0.65473579
C       -0.91132561       0.90220522       0.91563759
C       -0.01476271      -0.02253852       1.78660255
H       -0.67934791      -0.69751639       2.42135241
H        0.63392994       0.61504881       2.47327442
C        0.01484550      -1.77751727      -0.01636693
H        0.67870853      -2.42144646      -0.68295456
H       -0.62264859      -2.45592969       0.64226336
C        1.78714474       0.01002794       0.00389507
H        2.44202412       0.67113390       0.66197326
H        2.45385902      -0.65136977      -0.64189061
C        0.91606151      -0.90478549       0.90901405
