54
Properties=species:S:1:pos:R:3 pbc="F F F"
C        1.77746420       1.77746420      -1.77746420
C        1.58691582       3.12244955      -2.00191637
C        2.62936814       3.52913118      -2.87253914
C        3.38310535       2.40345027      -3.11833493
Br       4.89696026       2.34160531      -4.20631767
O        2.86989737       1.33352946      -2.45466464
H        0.79674117       3.73542077      -1.59098001
H        2.80622401       4.51915313      -3.26916565
C       -1.77746420      -1.77746420      -1.77746420
C       -1.49309750      -3.07363417      -2.14455008
C       -2.57439394      -3.50052754      -2.95611698
C       -3.44296009      -2.43459436      -3.02733610
Br      -5.05308588      -2.42284309      -3.96895428
O       -2.96376602      -1.38237194      -2.31195350
H       -0.61719484      -3.64199716      -1.86394994
H       -2.70156690      -4.46469849      -3.42827740
C       -1.77746420       1.77746420       1.77746420
C       -2.98804249       1.40554453       2.31769473
C       -3.45037208       2.52308920       3.05757718
C       -2.48919824       3.49881519       2.91687713
Br      -2.56526704       5.19877340       3.68084280
O       -1.46800575       3.05136208       2.13872364
H       -3.47820456       0.44964903       2.19528836
H       -4.36921696       2.60389747       3.62142836
C        1.77746420      -1.77746420       1.77746420
C        3.04068600      -1.45237865       2.21821710
C        3.48121936      -2.55053200       2.99928711
C        2.45561250      -3.46893527       2.98034278
Br       2.47766187      -5.12083343       3.84638794
O        1.41533410      -3.00450216       2.23825520
H        3.57895166      -0.53928033       2.00490996
H        4.42794240      -2.65614204       3.51045835
C       -0.00445707       0.01189536      -1.78238275
H       -0.66409135       0.67374010      -2.43557963
H        0.65740317      -0.63156657      -2.45157240
C       -0.90989263      -0.90692880      -0.91072765
C        0.90977584       0.90977584      -0.90977584
C       -0.00465871       1.77757030       0.00794375
H       -0.66225468       2.44313916      -0.64384735
H        0.64322798       2.43503045       0.67728295
C       -1.78241447       0.00034974      -0.00472694
H       -2.45427497      -0.65498947       0.64260836
H       -2.43311707       0.67328779      -0.65473579
C       -0.91132561       0.90220522       0.91563759
C       -0.01476271      -0.02253852       1.78660255
H       -0.67934791      -0.69751639       2.42135241
H        0.63392994       0.61504881       2.47327442
C        0.01484550      -1.77751727      -0.01636693
H        0.67870853      -2.42144646      -0.68295456
H       -0.62264859      -2.45592969       0.64226336
C        1.78714474       0.01002794       0.00389507
H        2.44202412       0.67113390       0.66197326
H        2.45385902      -0.65136977      -0.64189061
C        0.91606151      -0.90478549       0.90901405
