198
Properties=species:S:1:pos:R:3 pbc="F F F"
C        1.79179103       1.79179103      -1.79179103
C        2.47974246       2.86565844      -1.22900313
C        3.26150033       3.69185604      -2.04184965
C        3.34506928       3.44164917      -3.41781555
C        2.70252861       2.32588229      -3.96380046
C        1.90507570       1.51169497      -3.15311927
C        4.15641562       4.36193660      -4.25253610
O        5.28529361       4.67765337      -3.87081205
N        3.61511034       4.87253694      -5.41983027
C        2.22177946       4.82674330      -5.85151665
C        2.21488498       5.52521226      -7.20059962
C        3.30149485       6.57773462      -7.04120386
C        4.35822763       5.88101278      -6.17737752
H        4.81776817       6.60799575      -5.49699441
C        5.46183936       5.21718083      -7.02394178
O        5.25862021       4.84416543      -8.17686833
N        6.64372563       5.08143158      -6.32215580
C        7.81238593       4.75255359      -6.94900749
N        8.02724928       4.41487784      -8.19627317
N        9.37264447       4.29834535      -8.46678385
C       10.13479663       4.60334034      -7.43097356
S        9.21896091       4.90438867      -5.99607412
C       11.60468964       4.71458017      -7.50009295
C       12.25267131       4.32297846      -8.68687749
C       13.63500793       4.46988327      -8.84674275
C       14.39105757       5.01375947      -7.81503074
Br      16.25352845       5.24204123      -8.03344571
C       13.77879741       5.39960442      -6.62466560
C       12.39291240       5.24989795      -6.46911208
H        2.41326310       3.06995792      -0.16335354
H        3.80115478       4.52732810      -1.60368707
H        2.81803843       2.07753825      -5.01516946
H        1.38347358       0.66457794      -3.59145392
H        1.62215460       5.37188796      -5.11439030
H        1.84502359       3.80771255      -5.93532064
H        2.49071735       4.81822132      -7.99245294
H        1.23980299       5.95173028      -7.44922874
H        3.67968395       6.93905960      -8.00218794
H        2.89212026       7.43693939      -6.49582743
H        6.65761275       5.25794745      -5.32140468
H       11.67544434       3.90895226      -9.51397815
H       14.10036954       4.16741057      -9.78185197
H       14.36534031       5.83080443      -5.81789977
H       11.95202322       5.58170662      -5.53114258
C       -1.79179103      -1.79179103      -1.79179103
C       -2.94573819      -2.36686720      -1.26179863
C       -3.73568824      -3.19971729      -2.05980049
C       -3.36152764      -3.45800342      -3.38500293
C       -2.23719067      -2.82754260      -3.92747810
C       -1.43704792      -2.01029337      -3.12254865
C       -4.20667587      -4.37526112      -4.18895133
O       -5.43017644      -4.22458562      -4.17899697
N       -3.60671518      -5.39933105      -4.90143131
C       -2.23269825      -5.87817806      -4.78916310
C       -2.13187700      -6.99791151      -5.81090835
C       -3.52953767      -7.59803669      -5.79285898
C       -4.44320351      -6.38487084      -5.58854357
H       -5.29660662      -6.66621770      -4.95993400
C       -4.96669634      -5.81490614      -6.92135949
O       -4.34920962      -5.95627800      -7.97416635
N       -6.15544212      -5.12986965      -6.76200125
C       -6.91670385      -4.76193930      -7.83530387
N       -6.66128094      -4.86086435      -9.11625500
N       -7.75072417      -4.50639393      -9.88065556
C       -8.81240516      -4.20197033      -9.15473506
S       -8.47670855      -4.18364920      -7.45906595
C      -10.14876072      -3.94501921      -9.72558284
C      -10.27636773      -3.86115775     -11.12500178
C      -11.52396800      -3.69202504     -11.73564092
C      -12.66655868      -3.60416535     -10.94912374
Br     -14.35781798      -3.40451746     -11.76667996
C      -12.56969749      -3.67229664      -9.56107330
C      -11.31678124      -3.84142499      -8.95371620
H       -3.23779575      -2.17668972      -0.23208909
H       -4.63749909      -3.64586486      -1.64880601
H       -1.97653809      -2.96040175      -4.97380631
H       -0.54706319      -1.54911479      -3.54332746
H       -2.08774658      -6.25126849      -3.76941780
H       -1.50129336      -5.09600334      -4.99076008
H       -1.91402351      -6.58428728      -6.80308081
H       -1.35202487      -7.72325108      -5.56548605
H       -3.75023152      -8.17445035      -6.69624962
H       -3.61975968      -8.27257061      -4.93255680
H       -6.49230090      -4.91774773      -5.82691624
H       -9.39423531      -3.94374311     -11.76039633
H      -11.58634184      -3.64312248     -12.82016774
H      -13.46116066      -3.61008228      -8.94280157
H      -11.28775677      -3.90914293      -7.86797273
C       -1.79179103       1.79179103       1.79179103
C       -1.84409604       1.56422558       3.16608239
C       -2.67566913       2.35080093       3.96873596
C       -3.45697175       3.35880126       3.38876099
C       -3.35140935       3.62159859       2.01920343
C       -2.53412908       2.82137379       1.21438706
C       -4.35332046       4.14869390       4.26887396
O       -3.90914015       4.59655758       5.32806130
N       -5.67445845       4.33378664       3.89923245
C       -6.41146214       3.64199309       2.84658417
C       -7.80114500       4.25455953       2.88499232
C       -7.99102426       4.56807487       4.36133420
C       -6.59476634       4.99788844       4.82396315
H       -6.42192026       4.65100866       5.84982940
C       -6.40513375       6.52647423       4.77135399
O       -7.04766120       7.23337726       3.99861552
N       -5.43430695       6.95996999       5.65303607
C       -5.27960568       8.28472622       5.94961511
N       -5.87184599       9.33297366       5.43358064
N       -5.54183260      10.48704880       6.10889226
C       -4.75318597      10.26908720       7.14683737
S       -4.23880636       8.62247083       7.25814651
C       -4.38376134      11.30821219       8.12738924
C       -4.75577094      12.64053682       7.86621951
C       -4.50161333      13.66344418       8.78657645
C       -3.86825715      13.36446663       9.98712400
Br      -3.54705275      14.73449197      11.24747068
C       -3.47824857      12.05689211      10.26792675
C       -3.73484932      11.03513672       9.34193639
H       -1.24620435       0.77882827       3.62154195
H       -2.71467399       2.17666720       5.04082877
H       -3.89526338       4.44707061       1.56841215
H       -2.48192069       3.01216308       0.14542165
H       -6.43592717       2.57573888       3.09676682
H       -5.95389350       3.76841552       1.86574777
H       -7.82073467       5.18154821       2.29910873
H       -8.56803782       3.58451899       2.48820520
H       -8.76798781       5.31875626       4.53418743
H       -8.28473638       3.65190982       4.88824089
H       -4.83783112       6.28110752       6.11802624
H       -5.26777180      12.89320864       6.93739431
H       -4.81357138      14.67945421       8.55660647
H       -2.98825084      11.81786424      11.20792942
H       -3.43122531      10.02477735       9.60886977
C        1.79179103      -1.79179103       1.79179103
C        1.59932881      -1.80269080       3.17238441
C        2.42732298      -2.58540922       3.98247382
C        3.44992192      -3.34949236       3.40511972
C        3.59599884      -3.38160497       2.01460756
C        2.77985247      -2.58310464       1.20693282
C        4.33007251      -4.13937928       4.30143654
O        3.81904809      -4.82623451       5.18847642
N        5.70318066      -4.05921960       4.14507728
C        6.45564364      -3.09268199       3.35171378
C        7.90972122      -3.48977874       3.54119690
C        7.93061029      -4.02481894       4.96500411
C        6.57806048      -4.73090887       5.10764858
H        6.19720614      -4.59813674       6.12741544
C        6.66839116      -6.23773873       4.79683208
O        7.53184728      -6.69560740       4.05219930
N        5.66851546      -6.95761398       5.42118357
C        5.70549451      -8.32188221       5.48657030
N        6.54162002      -9.16432631       4.93245396
N        6.32201169     -10.45461130       5.36115067
C        5.36247518     -10.54067318       6.26596218
S        4.55753472      -9.03351311       6.52837587
C        5.03919309     -11.77824612       7.00192356
C        5.67282944     -12.97437823       6.61531959
C        5.46783260     -14.16856826       7.31523310
C        4.62120796     -14.18117726       8.41746256
Br       4.36123636     -15.78260020       9.38517884
C        3.97146777     -13.01523453       8.81636512
C        4.17987871     -11.82081942       8.11122430
H        0.81261058      -1.20635715       3.62760682
H        2.27602397      -2.59747987       5.05866611
H        4.33642825      -4.02576917       1.54854873
H        2.92074641      -2.58974924       0.12900978
H        6.25606088      -2.09488361       3.75748838
H        6.17765402      -3.11212875       2.29827401
H        8.17758562      -4.28682408       2.83698191
H        8.59791057      -2.65460110       3.38825034
H        8.79248296      -4.67062923       5.15781931
H        7.97834365      -3.18158569       5.66495774
H        4.90038073      -6.46643730       5.87014685
H        6.35297746     -12.98215887       5.76323842
H        5.98311531     -15.07114830       6.99536846
H        3.31346598     -13.01942836       9.68115017
H        3.66821953     -10.92896447       8.46768842
C       -0.00445707       0.01189536      -1.78238275
H       -0.66409135       0.67374010      -2.43557963
H        0.65740317      -0.63156657      -2.45157240
C       -0.90989263      -0.90692880      -0.91072765
C        0.90977584       0.90977584      -0.90977584
C       -0.00465871       1.77757030       0.00794375
H       -0.66225468       2.44313916      -0.64384735
H        0.64322798       2.43503045       0.67728295
C       -1.78241447       0.00034974      -0.00472694
H       -2.45427497      -0.65498947       0.64260836
H       -2.43311707       0.67328779      -0.65473579
C       -0.91132561       0.90220522       0.91563759
C       -0.01476271      -0.02253852       1.78660255
H       -0.67934791      -0.69751639       2.42135241
H        0.63392994       0.61504881       2.47327442
C        0.01484550      -1.77751727      -0.01636693
H        0.67870853      -2.42144646      -0.68295456
H       -0.62264859      -2.45592969       0.64226336
C        1.78714474       0.01002794       0.00389507
H        2.44202412       0.67113390       0.66197326
H        2.45385902      -0.65136977      -0.64189061
C        0.91606151      -0.90478549       0.90901405
