181
Properties=species:S:1:pos:R:3 pbc="F F F"
C        0.00000000       0.00000000       0.00000000
C        8.18535273       6.89338615      -6.20233648
C        7.01631398       7.46359386      -5.41933032
O        6.02498357       6.43755248      -5.25069279
C        5.94113909       5.86212229      -4.02708140
O        6.54981115       6.20594099      -3.02526848
C        4.99699763       4.73020435      -4.05851006
C        4.14916774       4.41414183      -3.05318619
C        3.89740146       5.25992971      -1.84550473
N        3.43593882       3.24203948      -3.35160581
C        2.54974173       2.48320148      -2.51349137
C        1.58850550       1.61981665      -3.06723065
C        0.76286252       0.82232369      -2.26275203
C        0.88085237       0.88085237      -0.88085237
C        1.81476195       1.73029605      -0.30133405
C        2.64377544       2.51777202      -1.11447828
C        3.79956121       2.77849427      -4.64689494
O        3.42016534       1.80277074      -5.26870535
C        4.85797644       3.73986412      -5.10764421
C        5.55502697       3.65564630      -6.25268074
C        5.40823289       2.63647747      -7.29195528
C        6.14242043       1.44824714      -7.21835776
C        6.04614722       0.50098222      -8.24014349
C        5.21514082       0.74461751      -9.33241409
C        4.47394488       1.92271420      -9.41018698
C        4.57167422       2.87015258      -8.38724536
H        8.93011237       7.66598273      -6.41276408
H        7.84294268       6.46748196      -7.15190696
H        8.66642910       6.08252243      -5.64556794
H        6.54993877       8.27485070      -5.98698433
H        7.35751287       7.88206641      -4.46599815
H        2.83613711       5.26609243      -1.57637523
H        4.15709404       6.30936764      -2.02292114
H        4.49148534       4.91697686      -0.99465263
H        1.44455976       1.54875099      -4.14271838
H        0.04225810       0.15799213      -2.73321663
H        1.92828527       1.77292405       0.77901824
H        3.40234485       3.10197358      -0.60794591
H        6.32569488       4.38245453      -6.49346975
H        6.79219463       1.25159108      -6.36919899
H        6.62128169      -0.41864751      -8.17355236
H        3.82211412       2.11351213     -10.25831161
H        3.99168415       3.78759245      -8.45602116
C        5.12711025      -0.22568955     -10.39277008
C        5.05338464      -1.03832172     -11.28081822
Br       4.93417658      -2.35227920     -12.71671695
C       -6.11986624      -8.13008429      -7.03112482
C       -5.45871030      -6.87306392      -7.56746394
O       -5.28370308      -5.94254038      -6.48698538
C       -4.03053912      -5.81027144      -5.98953222
O       -3.01752916      -6.32199732      -6.44149413
C       -4.04398837      -4.94796711      -4.79375656
C       -3.07722626      -4.05364437      -4.48562514
C       -1.95212687      -3.66105708      -5.38965195
N       -3.33821721      -3.44281077      -3.24855612
C       -2.50893148      -2.55158015      -2.48592295
C       -3.06244491      -1.69158211      -1.52152578
C       -2.25986773      -0.86557585      -0.72249467
C       -0.88085237      -0.88085237      -0.88085237
C       -0.30250443      -1.71274543      -1.83114219
C       -1.11277010      -2.54338726      -2.61986838
C       -4.57026692      -3.92758438      -2.72709912
O       -5.14492357      -3.65896405      -1.68775382
C       -5.02694934      -4.94993940      -3.72859602
C       -6.11430410      -5.73069946      -3.61835044
C       -7.08591805      -5.72614794      -2.52459965
C       -6.87944470      -6.53048256      -1.39909807
C       -7.83541293      -6.57019644      -0.38166356
C       -8.99498271      -5.80463408      -0.49255563
C       -9.20535616      -4.99429376      -1.60719614
C       -8.24815321      -4.95593541      -2.62498354
H       -6.33480726      -8.83499913      -7.83905279
H       -7.05737256      -7.88509069      -6.51986835
H       -5.47614721      -8.62310325      -6.29526901
H       -6.11231543      -6.39542440      -8.30403397
H       -4.51701205      -7.11707783      -8.07148755
H       -1.75514754      -2.58527812      -5.33817911
H       -2.18609361      -3.86248378      -6.44080543
H       -1.04149256      -4.21457979      -5.14704247
H       -4.13733254      -1.62951537      -1.36918121
H       -2.72868576      -0.22593561       0.02115452
H        0.77722782      -1.74607548      -1.95334342
H       -0.59983744      -3.22356580      -3.28886109
H       -6.35448694      -6.46659771      -4.38053450
H       -5.97720296      -7.12984227      -1.30593947
H       -7.66556968      -7.19890357       0.48828671
H      -10.10628857      -4.39320251      -1.69444677
H       -8.42033731      -4.32269639      -3.49226406
C       -9.98715267      -5.85682360       0.54978549
C      -10.81809501      -5.90053232       1.42274619
Br     -12.16165850      -5.97120562       2.83424980
C       -6.04037857       7.19481511       8.04588168
C       -6.35274497       5.72636342       7.82012977
O       -5.84320004       5.33480395       6.53522485
C       -4.70597784       4.59858999       6.52577495
O       -4.13353892       4.14327661       7.50420508
C       -4.22830903       4.41418195       5.14322106
C       -3.66374890       3.27778928       4.67495758
C       -3.60817169       1.97933123       5.41533299
N       -3.24535497       3.43978887       3.34444026
C       -2.47983790       2.54583584       2.52076084
C       -2.52148007       2.63554372       1.11852902
C       -1.72899925       1.81572097       0.30321802
C       -0.88085237       0.88085237       0.88085237
C       -0.82240818       0.76049572       2.26348815
C       -1.61194713       1.59190480       3.07217381
C       -3.59120274       4.74330231       2.89044536
O       -3.40192169       5.27714668       1.81257307
C       -4.21218637       5.40645100       4.08684739
C       -4.62643767       6.68233861       4.15457772
C       -4.58620075       7.67230920       3.07815568
C       -3.44829090       8.46493035       2.89580408
C       -3.43198559       9.44971497       1.90557237
C       -4.55376311       9.63843328       1.09997604
C       -5.68931665       8.84783497       1.26969444
C       -5.70455242       7.86306310       2.26145664
H       -6.47600713       7.54827753       8.98457451
H       -6.43385326       7.80389204       7.22458630
H       -4.95852717       7.36121259       8.07477971
H       -7.43671656       5.57667263       7.79838462
H       -5.95204043       5.11630966       8.63722735
H       -3.79798576       1.13132827       4.74929074
H       -4.38192578       1.91889158       6.18856545
H       -2.64242720       1.85021105       5.91047658
H       -3.18056443       3.33946975       0.61599494
H       -1.78208298       1.92820039      -0.77681652
H       -0.15005894       0.04376633       2.72836581
H       -1.46679306       1.50352490       4.14194637
H       -5.03944832       7.08861549       5.07355535
H       -2.56977623       8.32291020       3.52029828
H       -2.54308452      10.06053246       1.77256956
H       -6.56368595       8.98978748       0.64046443
H       -6.59483943       7.25154232       2.38891602
C       -4.54200497      10.66349805       0.08868776
C       -4.53215752      11.52198979      -0.75826617
Br      -4.51623504      12.91009832      -2.12771904
C        7.61443372      -7.73321026       5.93343138
C        6.10242388      -7.86985372       5.92696055
O        5.52215099      -6.59899826       5.59207960
C        5.03355136      -6.46070552       4.33608591
O        4.93912983      -7.34418194       3.49770884
C        4.62160459      -5.06509656       4.09901090
C        3.53479686      -4.70057271       3.38112620
C        2.48270660      -5.63889617       2.88123314
N        3.45407304      -3.30298036       3.27253071
C        2.55240660      -2.50634574       2.48768225
C        2.29874775      -1.16277272       2.81403233
C        1.47481455      -0.35370944       2.01941425
C        0.88085237      -0.88085237       0.88085237
C        1.10385217      -2.20758192       0.53495796
C        1.93781971      -3.00744225       1.33076377
C        4.52368433      -2.70521657       3.99604953
O        4.81366653      -1.53214308       4.14583183
C        5.32079522      -3.86663255       4.51805699
C        6.47438313      -3.78750054       5.20147034
C        7.17121208      -2.56466722       5.60078634
C        8.09898459      -1.97198702       4.73805372
C        8.80670245      -0.83793485       5.14263564
C        8.58387111      -0.29943256       6.40886876
C        7.65548804      -0.87913277       7.27222525
C        6.94834639      -2.01438854       6.86633724
H        8.09059955      -8.66385074       6.25440889
H        7.92640686      -6.92810440       6.60782033
H        7.98466437      -7.47366569       4.93618941
H        5.74940436      -8.13355350       6.92881595
H        5.78989677      -8.66943568       5.24624498
H        1.48121302      -5.20949610       2.98789564
H        2.46129101      -6.57008169       3.45801012
H        2.65945568      -5.90709403       1.83656512
H        2.72614042      -0.70626205       3.70362666
H        1.31681070       0.68439451       2.30105066
H        0.65787206      -2.62749346      -0.36317443
H        2.13379842      -4.00945196       0.96901395
H        7.00050926      -4.68400883       5.51710107
H        8.27748353      -2.38651529       3.74898588
H        9.52571950      -0.38553405       4.46493299
H        7.47659061      -0.45912440       8.25822284
H        6.22708705      -2.46196661       7.54624411
C        9.32414342       0.86123957       6.83128693
C        9.94412148       1.83330248       7.18506215
Br      10.94657357       3.40504599       7.75708675
