97
Properties=species:S:1:pos:R:3 pbc="F F F"
C        0.00000000       0.00000000       0.00000000
C        0.88357772       0.88357772      -0.88357772
C        0.57399193       2.24781084      -1.01751712
C        1.36288052       3.07789121      -1.81720075
C        2.44866465       2.51292049      -2.46549378
C        3.44828619       3.19270745      -3.38008249
C        4.36576558       2.04424824      -3.75005177
C        5.47822767       2.07156817      -4.57493824
C        6.17618696       0.87793450      -4.77183058
C        5.75205109      -0.30717613      -4.14655956
C        4.62926407      -0.33148389      -3.31491259
C        3.93892207       0.85309924      -3.12114199
C        2.76031027       1.14140555      -2.33118810
C        1.97968216       0.31642961      -1.53896035
H       -0.28422075       2.66791773      -0.49804957
H        1.12788640       4.13179081      -1.92371044
H        3.99893015       3.96968423      -2.84194973
H        2.95060007       3.59189597      -4.26859130
H        5.80176797       2.98898650      -5.05554814
H        7.05303732       0.87362625      -5.41502637
H        4.30869647      -1.25022724      -2.83626197
H        2.21157631      -0.73712010      -1.43024233
C        6.49139645      -1.52283919      -4.36821641
C        7.11059819      -2.54095700      -4.55385403
Br       8.11179504      -4.18716740      -4.85401436
C       -0.88357772      -0.88357772      -0.88357772
C       -0.48405111      -2.20405704      -1.15121174
C       -1.27071652      -3.03306969      -1.95418627
C       -2.44519585      -2.51125570      -2.47062737
C       -3.46198023      -3.19942454      -3.35967137
C       -4.49046390      -2.10497534      -3.56462635
C       -5.66123192      -2.16066376      -4.30283839
C       -6.46084722      -1.01646421      -4.34864061
C       -6.07764277       0.14879262      -3.66258436
C       -4.89583565       0.20181979      -2.91867692
C       -4.10472683      -0.93377087      -2.87466560
C       -2.84728828      -1.18373504      -2.20188060
C       -2.06905550      -0.35990694      -1.40610968
H        0.44284917      -2.59074713      -0.73384859
H       -0.96646310      -4.05327933      -2.16364522
H       -3.90682644      -4.05702325      -2.84671440
H       -3.00972065      -3.48864596      -4.31272072
H       -5.95283678      -3.06258029      -4.83088554
H       -7.38503206      -1.03520211      -4.92145577
H       -4.60744463       1.10495844      -2.39224501
H       -2.37002175       0.66004130      -1.19471810
C       -6.92206655       1.31337760      -3.72808472
C       -7.62927147       2.28871752      -3.78294128
Br      -8.77276201       3.86575968      -3.87163969
C       -0.88357772       0.88357772       0.88357772
C       -2.15445775       0.42029781       1.26456433
C       -2.98218154       1.20530657       2.07048438
C       -2.50923934       2.44260409       2.47523550
C       -3.20672413       3.47136288       3.34298913
C       -2.17344708       4.57847522       3.40814329
C       -2.26126992       5.79054776       4.07291640
C       -1.17321595       6.66233075       3.99040534
C       -0.03079697       6.30848131       3.25215623
C        0.05474253       5.08488393       2.58255138
C       -1.02515151       4.22218450       2.66582729
C       -1.23162281       2.90884164       2.09243948
C       -0.40919513       2.13240892       1.29346807
H       -2.50327872      -0.55527819       0.93374601
H       -3.96418410       0.85194303       2.36726052
H       -3.40358358       3.06691661       4.34006391
H       -4.12328356       3.82546293       2.86234083
H       -3.14542044       6.05931679       4.64156538
H       -1.21796968       7.61995547       4.50376479
H        0.93991643       4.81958420       2.01506344
H        0.57266107       2.48233743       0.99502219
C        1.07565956       7.22762149       3.18481175
C        2.00231691       7.99740138       3.12841075
Br       3.50064347       9.24207037       3.03721511
C        0.88357772      -0.88357772       0.88357772
C        2.27987607      -0.82269850       0.73674532
C        3.11073033      -1.61758949       1.52965267
C        2.51412638      -2.45801779       2.45493475
C        3.18775024      -3.40983672       3.42348918
C        1.99970358      -4.02026527       4.14009673
C        2.00623084      -4.97145381       5.14704943
C        0.77638084      -5.38850948       5.66106172
C       -0.42324339      -4.85180225       5.16287565
C       -0.42649911      -3.89230045       4.14689144
C        0.79397101      -3.48030766       3.63888463
C        1.11037350      -2.51961731       2.60291312
C        0.28456724      -1.73254908       1.81795580
H        2.72447401      -0.15444490       0.00282764
H        4.18931803      -1.57408302       1.41998660
H        3.82310593      -2.86202954       4.12542863
H        3.75005073      -4.17729091       2.88374568
H        2.93498857      -5.38294552       5.52836852
H        0.75517109      -6.13426724       6.45225162
H       -1.35664827      -3.48326642       3.76811304
H       -0.79360735      -1.77344602       1.92485988
C       -1.67631449      -5.30100083       5.71208733
C       -2.72576153      -5.67720465       6.17205211
Br      -4.42262864      -6.28549440       6.91577625
