89
Properties=species:S:1:pos:R:3 pbc="F F F"
C        0.00000000       0.00000000       0.00000000
C        0.88357772       0.88357772      -0.88357772
C        0.57399193       2.24781084      -1.01751712
C        1.36288052       3.07789121      -1.81720075
C        2.44866465       2.51292049      -2.46549378
C        3.44828619       3.19270745      -3.38008249
C        4.36576558       2.04424824      -3.75005177
C        5.47822767       2.07156817      -4.57493824
C        6.17618696       0.87793450      -4.77183058
C        5.75205109      -0.30717613      -4.14655956
Br       6.72398886      -1.90527751      -4.43794797
C        4.62926407      -0.33148389      -3.31491259
C        3.93892207       0.85309924      -3.12114199
C        2.76031027       1.14140555      -2.33118810
C        1.97968216       0.31642961      -1.53896035
H       -0.28422075       2.66791773      -0.49804957
H        1.12788640       4.13179081      -1.92371044
H        3.99893015       3.96968423      -2.84194973
H        2.95060007       3.59189597      -4.26859130
H        5.80176797       2.98898650      -5.05554814
H        7.05303732       0.87362625      -5.41502637
H        4.30869647      -1.25022724      -2.83626197
H        2.21157631      -0.73712010      -1.43024233
C       -0.88357772      -0.88357772      -0.88357772
C       -0.89655881      -2.27254292      -0.67021816
C       -1.69340888      -3.10320266      -1.46136094
C       -2.46108591      -2.51382176      -2.45217125
C       -3.39912624      -3.18881362      -3.43313628
C       -3.91848803      -2.00980845      -4.23176911
C       -4.82183614      -2.02108550      -5.28181244
C       -5.15522885      -0.79954190      -5.87118128
C       -4.58434478       0.39668911      -5.40377884
Br      -5.06091398       2.03265399      -6.22839933
C       -3.67323608       0.40474950      -4.34420619
C       -3.34426387      -0.80747800      -3.76142142
C       -2.44835484      -1.11744873      -2.66710036
C       -1.65915087      -0.29185452      -1.88406673
H       -0.28469148      -2.71154259       0.11448752
H       -1.70680630      -4.17614072      -1.30044063
H       -4.21654254      -3.68862428      -2.90539728
H       -2.85116482      -3.88171402      -4.07820849
H       -5.25988184      -2.94720684      -5.63921393
H       -5.86230081      -0.78217304      -6.69721610
H       -3.23731049       1.33222874      -3.98964945
H       -1.64332269       0.78068816      -2.04206402
C       -0.88357772       0.88357772       0.88357772
C       -2.26034118       0.61380175       0.96517697
C       -3.09069483       1.40355856       1.76371909
C       -2.51334378       2.45000946       2.46372567
C       -3.19065340       3.44176030       3.38866244
C       -2.02670445       4.31002767       3.82333347
C       -2.04589015       5.39664668       4.68219725
C       -0.83814374       6.04976876       4.93803953
C        0.35251538       5.60800493       4.33594496
Br       1.96972324       6.51923997       4.70714259
C        0.36858016       4.51140646       3.46986647
C       -0.82996782       3.86543183       3.21776364
C       -1.12924298       2.72166886       2.38199209
C       -0.30397940       1.94012693       1.59096579
H       -2.69002311      -0.21399034       0.40571378
H       -4.15423596       1.19919632       1.82995537
H       -3.63308632       2.92953347       4.24794431
H       -3.93273357       4.03346658       2.84488718
H       -2.96766795       5.73403733       5.14459733
H       -0.82719022       6.90550657       5.60899315
H        1.29167845       4.17700289       3.00940676
H        0.75919260       2.14145033       1.52244082
C        0.88357772      -0.88357772       0.88357772
C        2.27651749      -0.69847397       0.86432843
C        3.10727782      -1.49031109       1.66038357
C        2.51397890      -2.45325427       2.45984574
C        3.18821786      -3.42881775       3.40404053
C        2.00430890      -4.19257468       3.96318200
C        2.01301008      -5.22429937       4.88742463
C        0.78697101      -5.78173754       5.25724349
C       -0.41107869      -5.30149335       4.70101985
Br      -2.05315677      -6.08273277       5.22708333
C       -0.41653224      -4.26046476       3.76876026
C        0.80015298      -3.70932862       3.40368170
C        1.11360798      -2.63977030       2.47952565
C        0.28790496      -1.85598932       1.69117784
H        2.71855217       0.06465218       0.22784657
H        4.18327699      -1.35114845       1.64896221
H        3.71513840      -2.89513061       4.20029509
H        3.85668028      -4.09879726       2.85560978
H        2.94054844      -5.59172363       5.31403054
H        0.76751365      -6.59289606       5.98128024
H       -1.34544161      -3.89581376       3.34435904
H       -0.78769013      -1.99228700       1.70010169
