166
Properties=species:S:1:pos:R:3 pbc="F F F"
C        1.79109903       1.79109903      -1.79109903
C        2.83380996       1.22141940      -2.51757606
C        3.64338740       2.02748163      -3.32535956
C        3.41906758       3.41009149      -3.41527824
C        2.36041217       3.96238927      -2.67301888
C        1.54979287       3.15998814      -1.86475156
C        4.26507204       4.26738459      -4.25809073
N        4.05808560       5.59060983      -4.32669943
N        5.00827317       6.07192564      -5.17445189
C        5.05701305       7.44599258      -5.46662945
S        3.93275870       8.49911331      -4.72791515
C        4.63747878       9.81025937      -5.57244906
C        5.67177926       9.36449892      -6.37573123
N        5.92532519       7.99907436      -6.29617481
C        6.45147505      10.24460265      -7.24056062
C        7.78900479       9.94252997      -7.53481408
C        8.54434324      10.78285674      -8.36181894
C        7.96300182      11.92717977      -8.90328405
Br       8.97533769      13.06131422     -10.02638964
C        6.63532568      12.24094095      -8.62670523
C        5.88376416      11.40135029      -7.79995076
C        5.82267217       5.04850917      -5.65688527
N        6.84997725       5.23343418      -6.51626684
C        5.35922308       3.89053326      -5.07981926
H        3.02743758       0.15294774      -2.46304290
H        4.44944987       1.55222655      -3.87755426
H        2.15864702       5.03209193      -2.71898608
H        0.73920033       3.61400804      -1.30100424
H        4.26100408      10.81358621      -5.43661074
H        8.25522273       9.05340299      -7.11424550
H        9.58094861      10.53528359      -8.57550573
H        6.17264229      13.12883157      -9.04972322
H        4.84385321      11.65922344      -7.61486633
H        7.31503982       4.46016754      -6.98325969
H        6.99741395       6.14782585      -6.95369526
H        5.76761161       2.90314523      -5.23185490
C       -1.79109903      -1.79109903      -1.79109903
C       -3.00756488      -1.30323687      -2.26200366
C       -3.81734100      -2.10963182      -3.06925576
C       -3.41970399      -3.41083049      -3.41390282
C       -2.18752096      -3.88132168      -2.92697767
C       -1.37613677      -3.07840010      -2.11999570
C       -4.26361034      -4.26830625      -4.25863077
N       -3.88772579      -5.51731078      -4.57035827
N       -4.88673153      -6.02388260      -5.34403656
C       -4.78996105      -7.33300368      -5.84667035
S       -3.42429939      -8.28143785      -5.45404992
C       -4.06707428      -9.55889455      -6.39421839
C       -5.27053412      -9.17995505      -6.96152024
N       -5.69600356      -7.89885882      -6.62571197
C       -6.05008193     -10.04581862      -7.84073777
C       -7.44660196      -9.92780046      -7.89194641
C       -8.20175103     -10.75612888      -8.73113900
C       -7.56236234     -11.70327503      -9.52782827
Br      -8.57574174     -12.81908759     -10.66821222
C       -6.17671495     -11.83184590      -9.49441101
C       -5.42519265     -11.00481737      -8.65505519
C       -5.90382238      -5.08974229      -5.53450193
N       -7.02146238      -5.31779084      -6.26042505
C       -5.51890255      -3.96385061      -4.84682242
H       -3.33709673      -0.29889570      -2.00743579
H       -4.76106268      -1.69975322      -3.41841476
H       -1.84847251      -4.88673510      -3.17451741
H       -0.42907425      -3.46841471      -1.75672364
H       -3.53701972     -10.49639586      -6.47778546
H       -7.95760667      -9.19422595      -7.27103860
H       -9.28361356     -10.65352219      -8.75460217
H       -5.66973456     -12.56444702     -10.11701550
H       -4.34332680     -11.11294754      -8.66166864
H       -7.65989268      -4.57315053      -6.52542386
H       -7.10901171      -6.17376032      -6.81616303
H       -6.08054034      -3.04485723      -4.77721418
C       -1.79109903       1.79109903       1.79109903
C       -1.30411727       3.00869297       2.25999518
C       -2.10990634       3.81769275       3.06862950
C       -3.40971891       3.41827968       3.41643871
C       -3.87957485       2.18528269       2.93096277
C       -3.07705610       1.37441465       2.12306183
C       -4.26421362       4.25836633       4.26796741
N       -5.49888876       3.86412103       4.61238506
N       -5.99995142       4.85606770       5.39863157
C       -7.29927164       4.74673904       5.92362440
S       -8.22367821       3.35029000       5.58581895
C       -9.51229232       4.00736127       6.50053362
C       -9.16677254       5.25364292       6.99159396
N       -7.87798785       5.66926088       6.67332562
C      -10.06859296       6.07926347       7.78878189
C       -9.55432024       6.96804909       8.74397951
C      -10.41286722       7.76191823       9.51423346
C      -11.79069746       7.67437967       9.32838851
Br     -12.95425396       8.74893498      10.35985261
C      -12.31962773       6.80172635       8.38161777
C      -11.46076985       6.00942001       7.61487534
C       -5.08248711       5.89452607       5.55105343
N       -5.30950447       7.01084476       6.27932905
C       -3.96941062       5.52602679       4.83413818
H       -0.30011933       3.33866460       2.00464430
H       -1.69931512       4.76050132       3.41941423
H       -4.88339304       1.84419021       3.18214177
H       -3.46573092       0.42563542       1.76284626
H      -10.43254218       3.45520184       6.62345701
H       -8.47977201       7.04215262       8.90094659
H       -9.99671326       8.44202202      10.25300264
H      -13.39312294       6.73154510       8.22652904
H      -11.89853018       5.34992046       6.86949234
H       -4.70025245       7.82275268       6.23546193
H       -6.24186012       7.19627030       6.66080465
H       -3.06075286       6.10090796       4.74095093
C        1.79109903      -1.79109903       1.79109903
C        1.34506894      -3.05358897       2.17414751
C        2.15088400      -3.86272710       2.98261749
C        3.40983064      -3.41860395       3.41600272
C        3.83879686      -2.14073470       3.01628875
C        3.03611179      -1.32961071       2.20881007
C        4.26372891      -4.25857431       4.26824413
N        5.45813464      -3.82261957       4.69464064
N        5.97050551      -4.82800549       5.45613969
C        7.23521985      -4.68237823       6.05203700
S        8.10194734      -3.22682200       5.83101782
C        9.37635552      -3.86624289       6.77758881
C        9.07182187      -5.15156483       7.18862272
N        7.82326344      -5.61283271       6.78447820
C        9.97484150      -5.97199215       7.98980466
C        9.46086196      -6.93287122       8.87261566
C       10.32040147      -7.72235906       9.64625838
C       11.69934227      -7.55803548       9.53608789
Br      12.86478314      -8.62601647      10.57224194
C       12.22836025      -6.61296429       8.66164733
C       11.36841918      -5.82523126       7.89141476
C        5.10134999      -5.91659330       5.51012331
N        5.34960696      -7.05646681       6.19360451
C        4.00720796      -5.56660477       4.75576286
H        0.37308992      -3.41872600       1.85161231
H        1.77268879      -4.84130717       3.26523471
H        4.81022837      -1.76429898       3.33519767
H        3.39260025      -0.34566237       1.91594998
H       10.25984332      -3.27676208       6.97459563
H        8.38515909      -7.06746264       8.97024949
H        9.90414495      -8.45914069      10.32845230
H       13.30312270      -6.48243346       8.56564091
H       11.80761178      -5.10760384       7.20272736
H        4.78583184      -7.89388694       6.07874828
H        6.27048003      -7.21542377       6.61303127
H        3.13499703      -6.17971312       4.58790159
C       -0.00445707       0.01189536      -1.78238275
H       -0.66409135       0.67374010      -2.43557963
H        0.65740317      -0.63156657      -2.45157240
C       -0.90989263      -0.90692880      -0.91072765
C        0.90977584       0.90977584      -0.90977584
C       -0.00465871       1.77757030       0.00794375
H       -0.66225468       2.44313916      -0.64384735
H        0.64322798       2.43503045       0.67728295
C       -1.78241447       0.00034974      -0.00472694
H       -2.45427497      -0.65498947       0.64260836
H       -2.43311707       0.67328779      -0.65473579
C       -0.91132561       0.90220522       0.91563759
C       -0.01476271      -0.02253852       1.78660255
H       -0.67934791      -0.69751639       2.42135241
H        0.63392994       0.61504881       2.47327442
C        0.01484550      -1.77751727      -0.01636693
H        0.67870853      -2.42144646      -0.68295456
H       -0.62264859      -2.45592969       0.64226336
C        1.78714474       0.01002794       0.00389507
H        2.44202412       0.67113390       0.66197326
H        2.45385902      -0.65136977      -0.64189061
C        0.91606151      -0.90478549       0.90901405
