89
Properties=species:S:1:pos:R:3 pbc="F F F"
C        0.00000000       0.00000000       0.00000000
C        7.36598545       1.41235265      -2.63899787
C        6.68421413       2.46873343      -1.79033327
O        5.26253543       2.41966965      -1.98423122
C        4.58778256       1.55399777      -1.18926118
O        5.07670349       0.81643468      -0.34922205
C        3.12673346       1.62558990      -1.46165451
C        2.27056542       0.84666375      -0.67573213
C        0.88914210       0.88914210      -0.88914210
C        0.32306390       1.73240982      -1.86275382
N       -1.05342264       1.67067657      -2.16168493
C        1.20637577       2.46661328      -2.67583282
Br       0.54998467       3.57351863      -4.07852554
C        2.59027847       2.43199140      -2.47085832
H        8.45341096       1.48382074      -2.54672470
H        7.09201250       1.52962427      -3.69258398
H        7.05515543       0.40673457      -2.33880385
H        7.01480699       3.46389487      -2.10541204
H        6.94585796       2.36311879      -0.73116099
H        2.68353902       0.20219377       0.09872626
H       -1.40452830       2.50143665      -2.63198059
H       -1.62709470       1.38444098      -1.37178886
H        3.24166489       3.02805081      -3.10567382
C       -0.49587739      -4.17003796      -6.75142062
C       -1.40286759      -2.96730941      -6.57310382
O       -1.70681105      -2.77664329      -5.18298196
C       -0.82020430      -2.02888602      -4.48195120
O        0.20189010      -1.52558469      -4.91866565
C       -1.26696040      -1.87611482      -3.07090265
C       -0.50232828      -1.06979317      -2.22083984
C       -0.88914210      -0.88914210      -0.88914210
C       -2.06275646      -1.47505408      -0.38041700
N       -2.37363540      -1.39794683       0.99264337
C       -2.78698619      -2.32358538      -1.23825030
Br      -4.34297285      -3.23323797      -0.62581803
C       -2.40931123      -2.51118784      -2.57262913
H       -0.31039971      -4.36143803      -7.81211866
H       -0.94747358      -5.06192713      -6.30482004
H        0.46513961      -4.01474157      -6.25109189
H       -2.35392834      -3.14411362      -7.08607194
H       -0.96330506      -2.06440469      -7.01242798
H        0.39867989      -0.58816261      -2.59752382
H       -3.35480127      -1.57133870       1.19725103
H       -2.01185390      -0.56082983       1.44354858
H       -3.00422754      -3.15858800      -3.21257399
C       -7.41392878       1.65759832       2.34580886
C       -6.63890740       2.71776149       1.58661192
O       -5.23311165       2.58653570       1.84678895
C       -4.56150319       1.72719981       1.04233852
O       -5.04210435       1.05746625       0.14278963
C       -3.11457756       1.71048583       1.38891449
C       -2.25824440       0.92794331       0.60677359
C       -0.88914210       0.88914210       0.88914210
C       -0.33326909       1.65385382       1.93110464
N        1.02144912       1.50718733       2.29320066
C       -1.22024876       2.39185289       2.73672022
Br      -0.58342480       3.39400644       4.22459761
C       -2.59187356       2.43820687       2.46304776
H       -8.49042266       1.78909556       2.20443817
H       -7.18890482       1.70919913       3.41611680
H       -7.13750051       0.65320088       2.00999247
H       -6.93632119       3.71201564       1.93577707
H       -6.85077887       2.67742905       0.51192981
H       -2.66191178       0.34398315      -0.21888840
H        1.38806430       2.29496275       2.82199049
H        1.62020560       1.23076888       1.51857186
H       -3.24510708       3.03521226       3.09507019
C        1.32333819      -2.75340217       7.34059561
C        2.37586457      -1.87190244       6.69551382
O        2.35746577      -2.03923236       5.26973818
C        1.48954449      -1.24791954       4.59357749
O        0.72679222      -0.43157810       5.08398991
C        1.59401691      -1.49067315       3.12928782
C        0.81641767      -0.70326324       2.27328040
C        0.88914210      -0.88914210       0.88914210
C        1.76159744      -1.83551833       0.32111177
N        1.73170470      -2.10895464      -1.06172047
C        2.49450049      -2.65144499       1.20287639
Br       3.64048388      -4.02001370       0.54153127
C        2.42974546      -2.47389767       2.58948507
H        1.37241961      -2.68078777       8.43074901
H        1.46607702      -3.79909876       7.04904497
H        0.31817905      -2.46635376       7.01616105
H        3.37048400      -2.17440932       7.03922057
H        2.24490403      -0.82016326       6.97507044
H        0.14942700       0.05074839       2.68832793
H        2.57787888      -2.55658242      -1.40557236
H        1.44119292      -1.31369755      -1.62575533
H        3.02550541      -3.10976633       3.24011779
