110
Properties=species:S:1:pos:R:3 pbc="F F F"
C        8.27588947       2.32225668      -3.54890189
C        7.59411815       3.37863745      -2.70023729
O        6.17243946       3.32957368      -2.89413524
C        5.49768659       2.46390180      -2.09916520
O        5.98660752       1.72633871      -1.25912608
C        4.03663749       2.53549392      -2.37155854
C        3.18046945       1.75656777      -1.58563615
C        1.79904612       1.79904612      -1.79904612
C        1.23296793       2.64231385      -2.77265784
N       -0.14351861       2.58058060      -3.07158895
C        2.11627980       3.37651731      -3.58573684
Br       1.45988870       4.48342266      -4.98842956
C        3.50018250       3.34189542      -3.38076235
H        9.36331499       2.39372476      -3.45662872
H        8.00191653       2.43952829      -4.60248801
H        7.96505945       1.31663860      -3.24870788
H        7.92471101       4.37379889      -3.01531607
H        7.85576198       3.27302281      -1.64106501
H        3.59344305       1.11209779      -0.81117777
H       -0.49462427       3.41134067      -3.54188461
H       -0.71719068       2.29434501      -2.28169288
H        4.15156892       3.93795484      -4.01557784
C       -1.29085343      -5.38628283      -7.46991177
C       -2.14358890      -4.13397342      -7.39543057
O       -2.50387295      -3.85913444      -6.03314098
C       -1.61536116      -3.12039268      -5.32499974
O       -0.54943039      -2.68935000      -5.73329192
C       -2.12102534      -2.87545132      -3.94721329
C       -1.35839051      -2.06492547      -3.09935740
C       -1.79904612      -1.79904612      -1.79904612
C       -3.02374722      -2.30160175      -1.32259065
N       -3.39585422      -2.14057355       0.02777682
C       -3.74783194      -3.15656471      -2.17413729
Br      -5.37526839      -3.95850732      -1.59796521
C       -3.31651473      -3.42907529      -3.47725024
H       -1.06458789      -5.63956993      -8.50951065
H       -1.80772543      -6.23184090      -7.00436650
H       -0.34834056      -5.25225003      -6.92981534
H       -3.07664720      -4.29057649      -7.94660227
H       -1.63851534      -3.27648255      -7.85485191
H       -0.41722434      -1.64666719      -3.45282708
H       -4.39319562      -2.25616654       0.19076114
H       -3.01439381      -1.30011710       0.45566370
H       -3.91191587      -4.07861745      -4.11456828
C       -8.34551679       2.87436150       2.92716975
C       -7.46745243       3.92735828       2.27818218
O       -6.08952776       3.69737298       2.60924764
C       -5.42057563       2.84620614       1.79397181
O       -5.88343882       2.25861104       0.83002245
C       -4.00036370       2.72297431       2.22035195
C       -3.14430677       1.93597546       1.44239115
C       -1.79904612       1.79904612       1.79904612
C       -1.26434279       2.46870224       2.91489458
N        0.05568027       2.22062249       3.34370872
C       -2.15487609       3.21182092       3.71183692
Br      -1.55283526       4.08797540       5.29093026
C       -3.50274512       3.35593600       3.36415914
H       -9.40238748       3.07809951       2.73318148
H       -8.18264489       2.85161514       4.00967280
H       -8.10677187       1.87581640       2.54781766
H       -7.72848799       4.91629918       2.66903880
H       -7.61631542       3.96079213       1.19274225
H       -3.53007787       1.42505138       0.56158936
H        0.43391225       2.95371448       3.93879879
H        0.68326950       1.95306891       2.58904781
H       -4.15789047       3.95433545       3.99287568
C        1.10056346      -6.23924641       6.80723817
C        1.75606330      -4.88918018       7.02774941
O        2.24613657      -4.36627845       5.78373335
C        1.35664832      -3.65182213       5.05228314
O        0.19347639      -3.43122509       5.34737082
C        1.99571473      -3.13679002       3.81118520
C        1.23700606      -2.31432584       2.97134147
C        1.79904612      -1.79904612       1.79904612
C        3.13754376      -2.05854880       1.45184706
N        3.65487678      -1.64740388       0.20637028
C        3.86473178      -2.93016548       2.28363668
Br       5.65623065      -3.41503686       1.86047341
C        3.31247765      -3.45114113       3.45922149
H        0.78086216      -6.67456682       7.75823949
H        1.79612042      -6.92931323       6.31849918
H        0.22772757      -6.14977305       6.15290530
H        2.62160244      -5.00368413       7.68853940
H        1.07106122      -4.18494699       7.51384160
H        0.20519708      -2.08157983       3.22994170
H        4.67087986      -1.60511049       0.18261067
H        3.20997567      -0.80922593      -0.16035438
H        3.91058093      -4.10593481       4.08858586
C       -0.00445707       0.01189536      -1.78238275
H       -0.66409135       0.67374010      -2.43557963
H        0.65740317      -0.63156657      -2.45157240
C       -0.90989263      -0.90692880      -0.91072765
C        0.90977584       0.90977584      -0.90977584
C       -0.00465871       1.77757030       0.00794375
H       -0.66225468       2.44313916      -0.64384735
H        0.64322798       2.43503045       0.67728295
C       -1.78241447       0.00034974      -0.00472694
H       -2.45427497      -0.65498947       0.64260836
H       -2.43311707       0.67328779      -0.65473579
C       -0.91132561       0.90220522       0.91563759
C       -0.01476271      -0.02253852       1.78660255
H       -0.67934791      -0.69751639       2.42135241
H        0.63392994       0.61504881       2.47327442
C        0.01484550      -1.77751727      -0.01636693
H        0.67870853      -2.42144646      -0.68295456
H       -0.62264859      -2.45592969       0.64226336
C        1.78714474       0.01002794       0.00389507
H        2.44202412       0.67113390       0.66197326
H        2.45385902      -0.65136977      -0.64189061
C        0.91606151      -0.90478549       0.90901405
