133
Properties=species:S:1:pos:R:3 pbc="F F F"
C        0.00000000       0.00000000       0.00000000
C        0.88159345       0.88159345      -0.88159345
C        1.77885359       1.77239030      -0.29235603
C        2.58767857       2.57654830      -1.09908370
C        2.52322566       2.45457550      -2.49107807
C        1.59831674       1.58687721      -3.07384903
C        0.77840123       0.79397597      -2.26942076
O        3.27405494       3.21338785      -3.35667259
C        4.61640425       3.39894671      -3.11670643
C        5.43790043       2.50607107      -2.42628566
C        6.79008752       2.80647679      -2.23476156
C        7.33856185       3.97807538      -2.76405462
C        6.53449209       4.82405242      -3.53086136
C        5.17521556       4.54303762      -3.69085608
O        8.68224274       4.16014266      -2.51966976
C        9.23579109       5.40722694      -2.67999691
C        8.72246076       6.55189062      -2.06136752
C        9.33811421       7.78748100      -2.27066346
C       10.48551598       7.86433546      -3.06061699
Br      11.31265770       9.53813812      -3.35303214
C       11.03018680       6.71461955      -3.63403537
C       10.40498407       5.48280739      -3.43699788
H        1.85254346       1.85134715       0.78816431
H        3.26667903       3.28752065      -0.63463627
H        1.51947772       1.52617446      -4.15517799
H        0.06643983       0.11566892      -2.73298623
H        5.04813452       1.57244467      -2.02956228
H        7.41961710       2.11889824      -1.67766275
H        6.94173753       5.70825409      -4.01589931
H        4.55101980       5.21685706      -4.27254218
H        7.84016257       6.48986779      -1.42985024
H        8.91903216       8.67984281      -1.81354274
H       11.93520905       6.76768163      -4.23412593
H       10.82474274       4.58289732      -3.87904783
C       -0.88159345      -0.88159345      -0.88159345
C       -0.29720239      -1.68845637      -1.85794116
C       -1.10365248      -2.49742180      -2.66223629
C       -2.48699947      -2.52521255      -2.45666721
C       -3.06794814      -1.68907447      -1.50202037
C       -2.26511482      -0.86855034      -0.70813280
O       -3.35267682      -3.28259035      -3.20884821
C       -3.04765312      -4.59487752      -3.48952674
C       -2.25787936      -5.42269162      -2.68968618
C       -2.00757371      -6.74113198      -3.08262019
C       -2.57498386      -7.25258257      -4.25312541
C       -3.43700789      -6.44949615      -5.00290183
C       -3.65748727      -5.12095041      -4.63067158
O       -2.26526722      -8.56612771      -4.53066022
C       -2.46932974      -9.05576130      -5.79792389
C       -1.95231269      -8.44060576      -6.94280045
C       -2.20089619      -8.99577696      -8.19958553
C       -2.92673981     -10.18294777      -8.30078084
Br      -3.27273942     -10.92872378     -10.00236476
C       -3.39659352     -10.82686331      -7.15538489
C       -3.16100540     -10.26270765      -5.90107630
H        0.77892687      -1.69136435      -2.00328882
H       -0.64518885      -3.10476104      -3.43888607
H       -4.14629408      -1.68003458      -1.37450151
H       -2.72659069      -0.22643307       0.03792877
H       -1.82797108      -5.06379278      -1.75837761
H       -1.37423289      -7.37398516      -2.46796004
H       -3.95089565      -6.83404933      -5.88094595
H       -4.31418165      -4.49570525      -5.23053215
H       -1.36999920      -7.52642496      -6.86345644
H       -1.82398949      -8.49891610      -9.08951212
H       -3.94573646     -11.76228463      -7.22899552
H       -3.52239461     -10.75975678      -5.00453649
C       -0.88159345       0.88159345       0.88159345
C       -1.20761796       2.17198686       0.46399510
C       -2.01688672       2.97725428       1.26916956
C       -2.52925379       2.47124273       2.46838271
C       -2.17012929       1.19231987       2.89659381
C       -1.34893518       0.39209880       2.10076398
O       -3.32217735       3.19832748       3.32361054
C       -4.36500024       3.94394252       2.82311463
C       -5.06370871       3.65755039       1.64899805
C       -6.10307459       4.49535355       1.23289774
C       -6.47696617       5.59910500       2.00462067
C       -5.83566898       5.83031432       3.22342257
C       -4.77268840       5.01535758       3.62106327
O       -7.52019830       6.34333629       1.49852057
C       -7.73609836       7.61468329       1.97223328
C       -6.73732721       8.59337991       2.00501178
C       -7.03001621       9.86537908       2.50086339
C       -8.32687631      10.16354518       2.92004693
Br      -8.72074187      11.88164034       3.60144574
C       -9.33724568       9.20459883       2.83699722
C       -9.03983730       7.92896549       2.35598655
H       -0.83500487       2.56001076      -0.47928934
H       -2.24656741       3.99127782       0.95099072
H       -2.53361036       0.81821006       3.84900974
H       -1.08105032      -0.60555404       2.43959870
H       -4.81718326       2.78949930       1.04345891
H       -6.62860969       4.28044492       0.30712348
H       -6.14492825       6.63777232       3.88319036
H       -4.26503116       5.21357781       4.56181009
H       -5.73160582       8.36798235       1.66029243
H       -6.24440106      10.61432266       2.55369399
H      -10.35332003       9.43927634       3.14442024
H       -9.82226605       7.17766227       2.28675957
C        0.88159345      -0.88159345       0.88159345
C        1.02957347      -0.57883282       2.23519363
C        1.83357483      -1.38740473       3.04233101
C        2.45162223      -2.51845465       2.49880236
C        2.32763161      -2.79500567       1.13640569
C        1.53731252      -1.97926163       0.32522381
O        3.26635158      -3.35961786       3.21814594
C        2.88127670      -3.78010821       4.47067247
C        1.55971187      -3.90905690       4.90148839
C        1.28871078      -4.33813613       6.20447897
C        2.33145790      -4.67845088       7.07078305
C        3.64794605      -4.63449193       6.60696790
C        3.92103717      -4.17037367       5.31769842
O        1.94093622      -5.09711417       8.32400477
C        2.85847149      -5.11827600       9.34626744
C        3.63312993      -4.00720209       9.69538688
C        4.54668104      -4.10260102      10.74697661
C        4.64949386      -5.29193854      11.46903601
Br       5.89361390      -5.42492786      12.88528620
C        3.83843066      -6.38370290      11.15670816
C        2.93702289      -6.29226855      10.09549790
H        0.52979223       0.28242885       2.66836291
H        1.96608542      -1.13190007       4.09085046
H        2.84417027      -3.64870030       0.70795960
H        1.44096486      -2.20745578      -0.73332566
H        0.72668430      -3.68180842       4.24164875
H        0.25923710      -4.41533405       6.54160694
H        4.47980857      -4.95718347       7.22889889
H        4.95004281      -4.11998131       4.97039493
H        3.53965311      -3.07408997       9.14613752
H        5.16902527      -3.24730550      10.99608693
H        3.90190570      -7.30554729      11.72956363
H        2.30082221      -7.13804981       9.84781587
