154
Properties=species:S:1:pos:R:3 pbc="F F F"
C        1.79149748       1.79149748      -1.79149748
C        2.68875762       2.68229432      -1.20226006
C        3.49758259       3.48645232      -2.00898772
C        3.43312968       3.36447952      -3.40098210
C        2.50822076       2.49678123      -3.98375306
C        1.68830526       1.70387999      -3.17932478
O        4.18395896       4.12329187      -4.26657661
C        5.52630827       4.30885073      -4.02661045
C        6.34780445       3.41597509      -3.33618969
C        7.69999155       3.71638082      -3.14466558
C        8.24846587       4.88797940      -3.67395864
C        7.44439612       5.73395645      -4.44076539
C        6.08511958       5.45294164      -4.60076010
O        9.59214676       5.07004668      -3.42957379
C       10.14569511       6.31713096      -3.58990093
C        9.63236478       7.46179465      -2.97127154
C       10.24801823       8.69738502      -3.18056749
C       11.39542000       8.77423948      -3.97052101
Br      12.22256172      10.44804215      -4.26293616
C       11.94009082       7.62452357      -4.54393940
C       11.31488809       6.39271141      -4.34690190
H        2.76244748       2.76125117      -0.12173971
H        4.17658305       4.19742468      -1.54454030
H        2.42938174       2.43607848      -5.06508202
H        0.97634386       1.02557294      -3.64289026
H        5.95803855       2.48234870      -2.93946630
H        8.32952113       3.02880226      -2.58756678
H        7.85164155       6.61815812      -4.92580334
H        5.46092383       6.12676109      -5.18244621
H        8.75006660       7.39977182      -2.33975426
H        9.82893618       9.58974684      -2.72344676
H       12.84511308       7.67758565      -5.14402996
H       11.73464677       5.49280134      -4.78895185
C       -1.79149748      -1.79149748      -1.79149748
C       -1.50937849      -1.91163825      -3.15229525
C       -2.31409803      -2.72083528      -3.95808934
C       -3.37171381      -3.43792279      -3.38895470
C       -3.66954122      -3.28523687      -2.03397696
C       -2.87603760      -2.46492226      -1.23055018
O       -4.21752003      -4.24639015      -4.10991727
C       -3.70173595      -5.12406231      -5.03597119
C       -2.42853232      -5.69357090      -4.97786601
C       -2.00816764      -6.56820911      -5.98466120
C       -2.86808187      -6.91017591      -7.03214613
C       -4.17163938      -6.40927764      -7.03820092
C       -4.57945965      -5.50639113      -6.05297055
O       -2.34655215      -7.78768622      -7.95752886
C       -2.95253831      -7.91647284      -9.18371586
C       -3.22495226      -6.82523049     -10.01524822
C       -3.84407382      -7.03244042     -11.24945651
C       -4.14755860      -8.32999688     -11.66262501
Br      -4.99545248      -8.60992993     -13.32815762
C       -3.82684859      -9.42392838     -10.85777683
C       -3.22241589      -9.21439804      -9.61768749
H       -0.67271542      -1.37868104      -3.59404191
H       -2.10525734      -2.79041049      -5.02288020
H       -4.51803538      -3.80878935      -1.60371751
H       -3.11169394      -2.35851040      -0.17460271
H       -1.74819435      -5.47162209      -4.16003711
H       -1.00856651      -6.99100708      -5.94631657
H       -4.89042730      -6.70692764      -7.79824806
H       -5.58961864      -5.10503828      -6.07547420
H       -2.97100325      -5.81577095      -9.70281847
H       -4.08230034      -6.17995882     -11.87987063
H       -4.04407434     -10.43771783     -11.18493651
H       -2.96809685     -10.06189524      -8.98640787
C       -1.79149748       1.79149748       1.79149748
C       -2.79598541       2.56612809       1.21119849
C       -3.60459756       3.37014874       2.01827634
C       -3.43009302       3.36235764       3.40614065
C       -2.40038816       2.61219229       3.97617460
C       -1.58146200       1.82034780       3.16970024
O       -4.17322881       4.13009597       4.27050267
C       -5.53982644       4.19855281       4.12339020
C       -6.33688139       3.19725545       3.56583239
C       -7.71872780       3.38297861       3.45933154
C       -8.31730338       4.54952720       3.94357332
C       -7.52837336       5.50890150       4.58184309
C       -6.14327882       5.34050785       4.65503466
O       -9.68527232       4.61407043       3.79242448
C      -10.32153450       5.82646393       3.90472858
C       -9.94544500       6.95344895       3.16653703
C      -10.63901092       8.15374101       3.33321881
C      -11.72863131       8.20875283       4.20279636
Br     -12.66071253       9.83593040       4.43689710
C      -12.13876442       7.07093874       4.89885063
C      -11.43511056       5.87605372       4.74333714
H       -2.95373772       2.55482757       0.13687307
H       -4.36896806       3.99155287       1.55802710
H       -2.23888440       2.64207929       5.04957855
H       -0.78693581       1.23374272       3.62412852
H       -5.90510485       2.26618407       3.20856462
H       -8.33129610       2.61014332       3.00445075
H       -7.96726563       6.39646672       5.03187065
H       -5.53315642       6.10119791       5.13577680
H       -9.10909449       6.90635636       2.47414182
H      -10.32520439       9.03565669       2.78126870
H      -12.99928666       7.10501802       5.56242400
H      -11.75009203       4.98540563       5.28090229
C        1.79149748      -1.79149748       1.79149748
C        1.39869889      -2.07501727       3.09959583
C        2.20377492      -2.88428119       3.90496653
C        3.37686056      -3.43904957       3.38268117
C        3.78136954      -3.12243585       2.08494966
C        2.98605323      -2.30136560       1.28409120
O        4.23038811      -4.23516613       4.10827321
C        3.72335095      -5.24635648       4.89206203
C        2.52553777      -5.92204934       4.65238212
C        2.10525538      -6.92964548       5.52613709
C        2.89515031      -7.29561141       6.61964219
C        4.13481522      -6.67978020       6.80452253
C        4.53780732      -5.64755581       5.95345820
O        2.38246745      -8.30710338       7.40219640
C        2.88265596      -8.50352980       8.66654124
C        2.96469812      -7.48211593       9.61861692
C        3.48513805      -7.75582622      10.88500647
C        3.87966335      -9.05511963      11.20539751
Br       4.59430269      -9.42364548      12.91559186
C        3.74759417     -10.08636967      10.27458995
C        3.24201041      -9.80840693       9.00408407
H        0.47496519      -1.66927909       3.50119410
H        1.90573089      -3.08082896       4.93198817
H        4.71480499      -3.51893564       1.69680160
H        3.30609384      -2.06675573       0.27195749
H        1.90453650      -5.68176251       3.79355454
H        1.16169685      -7.43678039       5.34741293
H        4.80693805      -6.98562192       7.60304303
H        5.49546787      -5.15907629       6.11558696
H        2.63926074      -6.47386830       9.37646364
H        3.57617475      -6.95359731      11.61235771
H        4.03573777     -11.10379417      10.52719674
H        3.13460640     -10.60709571       8.27469785
C       -0.00445707       0.01189536      -1.78238275
H       -0.66409135       0.67374010      -2.43557963
H        0.65740317      -0.63156657      -2.45157240
C       -0.90989263      -0.90692880      -0.91072765
C        0.90977584       0.90977584      -0.90977584
C       -0.00465871       1.77757030       0.00794375
H       -0.66225468       2.44313916      -0.64384735
H        0.64322798       2.43503045       0.67728295
C       -1.78241447       0.00034974      -0.00472694
H       -2.45427497      -0.65498947       0.64260836
H       -2.43311707       0.67328779      -0.65473579
C       -0.91132561       0.90220522       0.91563759
C       -0.01476271      -0.02253852       1.78660255
H       -0.67934791      -0.69751639       2.42135241
H        0.63392994       0.61504881       2.47327442
C        0.01484550      -1.77751727      -0.01636693
H        0.67870853      -2.42144646      -0.68295456
H       -0.62264859      -2.45592969       0.64226336
C        1.78714474       0.01002794       0.00389507
H        2.44202412       0.67113390       0.66197326
H        2.45385902      -0.65136977      -0.64189061
C        0.91606151      -0.90478549       0.90901405
