162
Properties=species:S:1:pos:R:3 pbc="F F F"
C        1.79149748       1.79149748      -1.79149748
C        2.68875762       2.68229432      -1.20226006
C        3.49758259       3.48645232      -2.00898772
C        3.43312968       3.36447952      -3.40098210
C        2.50822076       2.49678123      -3.98375306
C        1.68830526       1.70387999      -3.17932478
O        4.18395896       4.12329187      -4.26657661
C        5.52630827       4.30885073      -4.02661045
C        6.34780445       3.41597509      -3.33618969
C        7.69999155       3.71638082      -3.14466558
C        8.24846587       4.88797940      -3.67395864
C        7.44439612       5.73395645      -4.44076539
C        6.08511958       5.45294164      -4.60076010
O        9.59214676       5.07004668      -3.42957379
C       10.14569511       6.31713096      -3.58990093
C        9.63236478       7.46179465      -2.97127154
C       10.24801823       8.69738502      -3.18056749
C       11.39542000       8.77423948      -3.97052101
C       11.94009082       7.62452357      -4.54393940
C       11.31488809       6.39271141      -4.34690190
H        2.76244748       2.76125117      -0.12173971
H        4.17658305       4.19742468      -1.54454030
H        2.42938174       2.43607848      -5.06508202
H        0.97634386       1.02557294      -3.64289026
H        5.95803855       2.48234870      -2.93946630
H        8.32952113       3.02880226      -2.58756678
H        7.85164155       6.61815812      -4.92580334
H        5.46092383       6.12676109      -5.18244621
H        8.75006660       7.39977182      -2.33975426
H        9.82893618       9.58974684      -2.72344676
H       12.84511308       7.67758565      -5.14402996
H       11.73464677       5.49280134      -4.78895185
C       12.02569508      10.04966313      -4.19333891
C       12.55355047      11.11783045      -4.37994891
Br      13.40704798      12.84496665      -4.68168148
C       -1.79149748      -1.79149748      -1.79149748
C       -1.45069480      -1.99366842      -3.12894877
C       -2.25558889      -2.80290883      -3.93452491
C       -3.37422997      -3.43863263      -3.38572870
C       -3.72877854      -3.20353446      -2.05644205
C       -2.93439748      -2.38278377      -1.25432879
O       -4.22415337      -4.24088309      -4.10879099
C       -3.70943669      -5.18801143      -4.96432133
C       -2.47090352      -5.81442568      -4.81464002
C       -2.04733767      -6.75801825      -5.75568203
C       -2.87206178      -7.11072383      -6.82761830
C       -4.14684462      -6.54866316      -6.92361017
C       -4.55543228      -5.57858394      -6.00480511
O       -2.35163756      -8.05793311      -7.68219657
C       -2.90368714      -8.21921831      -8.92982155
C       -3.08031290      -7.15954747      -9.82557061
C       -3.64904255      -7.39883857     -11.07808963
C       -3.99747905      -8.69951561     -11.44318583
C       -3.77152750      -9.76553985     -10.57148644
C       -3.21761650      -9.52293046      -9.31395445
H       -0.56789774      -1.52456436      -3.55297627
H       -1.99956620      -2.93615737      -4.98282446
H       -4.62235027      -3.66326814      -1.64492384
H       -3.21488402      -2.21194556      -0.21797747
H       -1.82033808      -5.58441350      -3.97510197
H       -1.07337759      -7.22592005      -5.64659253
H       -4.84236997      -6.84942359      -7.70380944
H       -5.54176984      -5.13076692      -6.09759437
H       -2.79100333      -6.14897337      -9.54961598
H       -3.81329958      -6.56882931     -11.76000089
H       -4.02371366     -10.78294360     -10.86007142
H       -3.03709593     -10.34869763      -8.63060640
C       -4.59173856      -8.94535579     -12.73160278
C       -5.08943090      -9.15124695     -13.81065198
Br      -5.89415731      -9.48415553     -15.55538327
C       -1.79149748       1.79149748       1.79149748
C       -2.92448236       2.39885962       1.24997001
C       -3.73275116       3.20276399       2.05750749
C       -3.42515514       3.36050125       3.41293492
C       -2.27082793       2.77868585       3.93924127
C       -1.45359823       1.98789141       3.13002040
O       -4.15921329       4.14096119       4.27365297
C       -5.53306818       4.06092548       4.26777580
C       -6.26845618       2.93339739       3.89811567
C       -7.66603178       2.97227706       3.92272911
C       -8.33646168       4.12064805       4.35329418
C       -7.59682773       5.21454754       4.80774267
C       -6.20111129       5.18956388       4.74814617
O       -9.71164448       4.03617501       4.34394773
C      -10.46020817       5.18645027       4.40606856
C      -10.28002404       6.25895684       3.52645009
C      -11.07874347       7.39754286       3.64968442
C      -12.07885450       7.43981065       4.62151535
C      -12.29563789       6.34878794       5.46412797
C      -11.48643589       5.21772274       5.35034278
H       -3.18316632       2.25741694       0.20485510
H       -4.60012567       3.69455177       1.62387058
H       -2.01051067       2.93878450       4.98124707
H       -0.56067127       1.53282908       3.55130671
H       -5.77602566       2.01552199       3.58830589
H       -8.23340156       2.09963911       3.61284949
H       -8.08268022       6.09861516       5.21430762
H       -5.63236308       6.05271603       5.08505202
H       -9.51426587       6.21902670       2.75630011
H      -10.91596083       8.24146399       2.98470497
H      -13.08670638       6.37041982       6.20960248
H      -11.65083601       4.36350688       6.00205706
C      -12.89718147       8.61722841       4.75428725
C      -13.58253031       9.60331578       4.86548373
Br     -14.69068142      11.19773567       5.04527902
C        1.79149748      -1.79149748       1.79149748
C        1.29781564      -2.27046540       3.00503095
C        2.10336304      -3.07971016       3.80994944
C        3.38370559      -3.43893845       3.37594727
C        3.88386117      -2.92729889       2.17759498
C        3.08604546      -2.10589858       1.37956599
O        4.24403575      -4.22043928       4.10935241
C        3.78112200      -5.36686572       4.71378174
C        2.70571585      -6.13321400       4.26103938
C        2.31836317      -7.27760881       4.96506598
C        3.02484398      -7.68555721       6.10000273
C        4.15461232      -6.96722925       6.49727637
C        4.51951307      -5.80310303       5.81620523
O        2.55652648      -8.83273750       6.70250325
C        2.93842456      -9.12488735       7.98941509
C        2.79480678      -8.22232885       9.04829535
C        3.20575449      -8.58883320      10.33138306
C        3.71686905      -9.86743787      10.55587357
C        3.81001569     -10.78761446       9.51092364
C        3.41366067     -10.41482820       8.22601255
H        0.29439465      -2.01713671       3.33390702
H        1.72284971      -3.42894031       4.76675801
H        4.89430810      -3.17208608       1.86414806
H        3.48210408      -1.71853503       0.44416795
H        2.15589618      -5.85940752       3.36454984
H        1.46713167      -7.85769396       4.62106454
H        4.76921660      -7.29302129       7.33336511
H        5.38867993      -5.23792754       6.14352365
H        2.37845514      -7.23297738       8.87816016
H        3.12139513      -7.87465461      11.14608004
H        4.18954222     -11.79127134       9.68591512
H        3.48165867     -11.12702071       7.40772058
C        4.14852893     -10.24278681      11.87738139
C        4.51004409     -10.55714154      12.98414419
Br       5.09458352     -11.06542656      14.77368603
C       -0.00445707       0.01189536      -1.78238275
H       -0.66409135       0.67374010      -2.43557963
H        0.65740317      -0.63156657      -2.45157240
C       -0.90989263      -0.90692880      -0.91072765
C        0.90977584       0.90977584      -0.90977584
C       -0.00465871       1.77757030       0.00794375
H       -0.66225468       2.44313916      -0.64384735
H        0.64322798       2.43503045       0.67728295
C       -1.78241447       0.00034974      -0.00472694
H       -2.45427497      -0.65498947       0.64260836
H       -2.43311707       0.67328779      -0.65473579
C       -0.91132561       0.90220522       0.91563759
C       -0.01476271      -0.02253852       1.78660255
H       -0.67934791      -0.69751639       2.42135241
H        0.63392994       0.61504881       2.47327442
C        0.01484550      -1.77751727      -0.01636693
H        0.67870853      -2.42144646      -0.68295456
H       -0.62264859      -2.45592969       0.64226336
C        1.78714474       0.01002794       0.00389507
H        2.44202412       0.67113390       0.66197326
H        2.45385902      -0.65136977      -0.64189061
C        0.91606151      -0.90478549       0.90901405
