166
Properties=species:S:1:pos:R:3 pbc="F F F"
O        7.28997619       4.54263534      -2.65235979
C        7.81324391       5.02153145      -3.65455893
C        7.01586619       5.90907761      -4.59682290
S        6.37074726       4.92907950      -5.99498457
C        5.36227734       3.69927050      -5.08950001
C        4.21411698       4.30822995      -4.29837005
O        3.89810148       5.49517280      -4.36173557
C        3.40210470       3.40211011      -3.42424765
C        3.61174673       2.01738714      -3.36926713
C        2.80617744       1.21431341      -2.55296769
C        1.79147150       1.79147150      -1.79147150
C        1.57431060       3.16581176      -1.83346110
C        2.37832546       3.96806938      -2.64824865
N        9.10996659       4.80094040      -4.09125163
C       10.09395576       3.99377012      -3.48682145
C        9.88387992       3.24047353      -2.32930620
C       10.91504273       2.46386748      -1.78876920
C       12.16315352       2.44241064      -2.40361327
C       12.38825890       3.18470097      -3.55902338
C       11.35384436       3.95477138      -4.10005862
H        7.66280150       6.69831479      -4.99437853
H        6.21547523       6.40791625      -4.04498687
H        6.01781953       3.11992118      -4.43515016
H        4.93801021       3.02738294      -5.84207427
H        4.38865632       1.52955564      -3.95026033
H        2.97703976       0.14076487      -2.52051402
H        0.78532343       3.62395123      -1.24237977
H        2.19800272       5.04190387      -2.67544117
H        9.37338551       5.24773794      -4.96232688
H        8.92615400       3.22935120      -1.81873983
H       10.72831704       1.88498857      -0.88796484
H       13.36056877       3.17417976      -4.04439386
H       11.55296447       4.52767084      -5.00226042
C       13.22625006       1.65040875      -1.84133331
C       14.11659342       0.98710718      -1.37042384
Br      15.55620331      -0.08539538      -0.60900305
O       -4.72470172      -2.54989194      -7.21037764
C       -5.18529827      -3.54958774      -7.75444829
C       -6.00354610      -4.55638658      -6.96183402
S       -4.94569892      -5.93806215      -6.41105027
C       -3.71227938      -5.02359215      -5.41517631
C       -4.30485457      -4.30199449      -4.21386791
O       -5.47494535      -4.42472134      -3.85534315
C       -3.40126090      -3.42421394      -3.40298762
C       -2.02912891      -3.30605072      -3.66322137
C       -1.22646287      -2.48986725      -2.85712842
C       -1.79147150      -1.79147150      -1.79147150
C       -3.15343502      -1.89653796      -1.52361047
C       -3.95528219      -2.71123893      -2.32812237
N       -5.00001469      -3.92708288      -9.07506105
C       -4.25650594      -3.25364917     -10.06439221
C       -3.54037686      -2.07592003      -9.83736276
C       -2.82681657      -1.46569145     -10.87517139
C       -2.83159107      -2.03087145     -12.14671492
C       -3.53741091      -3.20548331     -12.38908903
C       -4.24429677      -3.81607341     -11.34830418
H       -6.80212927      -4.95999967      -7.59336588
H       -6.49086208      -4.05598697      -6.12152929
H       -3.18505761      -4.32199775      -6.06583552
H       -2.99563798      -5.76448776      -5.04734168
H       -1.55074848      -3.83690237      -4.48082144
H       -0.16261804      -2.40809418      -3.06760642
H       -3.60207411      -1.35489263      -0.69468769
H       -5.01923699      -2.78813312      -2.10797764
H       -5.42322702      -4.80454095      -9.35568236
H       -3.51065536      -1.60242206      -8.86116762
H       -2.27592411      -0.55034074     -10.67500559
H       -3.54706996      -3.65240148     -13.37967095
H       -4.78965967      -4.73210561     -11.56113045
C       -2.10476601      -1.39709449     -13.21613163
C       -1.49605001      -0.86630629     -14.11176812
Br      -0.51180774      -0.00806667     -15.55993658
O       -2.63740060       7.27950532       4.56806539
C       -3.63934150       7.80564761       5.04434518
C       -4.59081301       7.00862122       5.92233247
S       -5.98707292       6.37656183       4.93117659
C       -5.08036885       5.36986764       3.70081135
C       -4.29888473       4.21406562       4.30776662
O       -4.37049863       3.89192045       5.49259077
C       -3.42424701       3.40222636       3.40198909
C       -3.36051233       3.61912833       2.01876034
C       -2.54422693       2.81348643       1.21574518
C       -1.79147150       1.79147150       1.79147150
C       -1.84219969       1.56703624       3.16434753
C       -2.65697726       2.37111990       3.96654632
N       -4.06772137       9.10593693       4.82850031
C       -3.45349528      10.09098649       4.03006556
C       -2.29302312       9.87867289       3.28196365
C       -1.74259841      10.91107875       2.51400225
C       -2.35048438      12.16264831       2.49604475
C       -3.50870882      12.39003959       3.23323484
C       -4.05961360      11.35442056       3.99464020
H       -4.98915818       7.65340824       6.71292840
H       -4.04610966       6.20249511       6.41977358
H       -4.41927179       6.02496055       3.12865853
H       -5.83154693       4.95342145       3.02249904
H       -3.93456081       4.40187384       1.53203764
H       -2.50494048       2.99003290       0.14334527
H       -1.25796622       0.77232035       3.62136786
H       -2.69105599       2.18508283       5.03920894
H       -4.93978616       9.37169306       5.27197111
H       -1.78764554       8.91823062       3.26836887
H       -0.83966036      10.72257208       1.93903801
H       -3.98869261      13.36504520       3.22540458
H       -4.96384846      11.55536163       4.56368564
C       -1.77805822      13.22695160       1.71298230
C       -1.29865131      14.11830561       1.05716751
Br      -0.52349088      15.55954966      -0.00322955
O        2.45829804      -4.90639562       7.12027765
C        3.24750882      -5.78452913       7.45729634
C        4.72732663      -5.66445407       7.12998601
S        5.11341363      -6.58154580       5.59985191
C        4.01169935      -5.71956084       4.41978765
C        4.33328972      -4.24277453       4.24465272
O        5.32038712      -3.69822225       4.73640047
C        3.41586125      -3.41783005       3.39477116
C        2.32874335      -3.96780360       2.70185405
C        1.51828218      -3.15378628       1.90139007
C        1.79147150      -1.79147150       1.79147150
C        2.86563785      -1.23104144       2.47690417
C        3.67509540      -2.04328991       3.27625817
N        2.93239765      -6.97316167       8.09659930
C        1.65765920      -7.42245502       8.49443311
C        0.47331533      -6.71944750       8.26089682
C       -0.75566211      -7.23329304       8.69004848
C       -0.80258240      -8.45228466       9.35947518
C        0.36765680      -9.16677849       9.59754796
C        1.59337915      -8.65343275       9.16186245
H        5.32044604      -6.08711546       7.94793332
H        5.00409471      -4.61011041       7.05417322
H        2.97659596      -5.85391745       4.74237746
H        4.14247975      -6.21319878       3.45178889
H        2.08568268      -5.02462517       2.75816445
H        0.67901809      -3.59256870       1.36673186
H        3.08534581      -0.16939173       2.39691689
H        4.51442960      -1.59480024       3.80611793
H        3.70346984      -7.60741057       8.27256992
H        0.46564477      -5.76566891       7.74293136
H       -1.66442191      -6.66932626       8.49636610
H        0.33947380     -10.11889090      10.12077769
H        2.49465315      -9.22807134       9.36017123
C       -2.06658011      -8.97562208       9.80895015
C       -3.12517818      -9.41391717      10.18538544
Br      -4.83684174     -10.12260326      10.79404946
C       -0.00445707       0.01189536      -1.78238275
H       -0.66409135       0.67374010      -2.43557963
H        0.65740317      -0.63156657      -2.45157240
C       -0.90989263      -0.90692880      -0.91072765
C        0.90977584       0.90977584      -0.90977584
C       -0.00465871       1.77757030       0.00794375
H       -0.66225468       2.44313916      -0.64384735
H        0.64322798       2.43503045       0.67728295
C       -1.78241447       0.00034974      -0.00472694
H       -2.45427497      -0.65498947       0.64260836
H       -2.43311707       0.67328779      -0.65473579
C       -0.91132561       0.90220522       0.91563759
C       -0.01476271      -0.02253852       1.78660255
H       -0.67934791      -0.69751639       2.42135241
H        0.63392994       0.61504881       2.47327442
C        0.01484550      -1.77751727      -0.01636693
H        0.67870853      -2.42144646      -0.68295456
H       -0.62264859      -2.45592969       0.64226336
C        1.78714474       0.01002794       0.00389507
H        2.44202412       0.67113390       0.66197326
H        2.45385902      -0.65136977      -0.64189061
C        0.91606151      -0.90478549       0.90901405
