133
Properties=species:S:1:pos:R:3 pbc="F F F"
C        0.00000000       0.00000000       0.00000000
O        1.44000524       6.37030704      -7.79100274
C        2.71639582       6.29783877      -7.15014175
C        2.60390470       5.83229561      -5.73457258
N        1.44427293       6.00388361      -5.06733280
N        1.68179734       5.43709969      -3.86830075
C        2.96197944       4.97106723      -3.71866536
N        3.38491771       4.42930467      -2.55192537
C        2.42979426       4.03017984      -1.51847584
H        2.96301344       4.10341790      -0.56091941
C        1.27918342       5.05115258      -1.46596850
C        0.65975233       5.38060549      -2.83950840
H        0.23277162       6.39005503      -2.77533821
C       -0.44512249       4.43133799      -3.25132782
F       -1.32451031       4.26484624      -2.23013891
F       -1.16616226       4.91115382      -4.29109888
F       -0.00356095       3.20710895      -3.59797765
C        1.96468457       2.61217571      -1.61280932
C        2.19548416       1.58730233      -2.51021305
C        1.47954565       0.46335834      -2.03030600
C        0.86680411       0.86680411      -0.86680411
O        1.15894692       2.16871494      -0.60374421
C        3.57348424       5.20746739      -4.92232448
H        0.79909208       6.40814882      -7.05146449
H        3.16293904       7.29659399      -7.17772811
H        3.34158162       5.62139659      -7.73973707
H        4.28155898       3.94463824      -2.51726128
H        1.70068786       5.98855240      -1.07335232
H        0.50660607       4.75267803      -0.74791536
H        2.79522283       1.65118627      -3.40873510
H        1.41941709      -0.51689374      -2.48184544
C        4.92807452       4.89366446      -5.29677460
C        6.06254389       4.63085451      -5.61037658
Br       7.89688489       4.20591304      -6.11744445
O       -1.39659469      -6.59411123      -7.61060911
C       -2.69114367      -6.45390364      -7.01932903
C       -2.61141369      -5.94160613      -5.61775308
N       -1.48279140      -6.12934250      -4.90335543
N       -1.74139671      -5.51154130      -3.73425976
C       -3.00830507      -4.99592983      -3.64747712
N       -3.45186675      -4.39780674      -2.51647426
C       -2.51962141      -3.99513976      -1.46368877
H       -3.08828947      -4.01495999      -0.52410130
C       -1.40928790      -5.05313640      -1.33388021
C       -0.75456312      -5.45357854      -2.67172455
H       -0.36693258      -6.47434919      -2.55688309
C        0.39769204      -4.55905364      -3.07618173
F        1.24629957      -4.38652154      -2.03025288
F        1.13678292      -5.10112961      -4.07174376
F        0.01315345      -3.33349849      -3.48118062
C       -2.00043894      -2.59860868      -1.59062199
C       -2.16245219      -1.59947396      -2.53107340
C       -1.42348369      -0.48459711      -2.06512918
C       -0.86680411      -0.86680411      -0.86680411
O       -1.21493163      -2.14732339      -0.56915104
C       -3.58552318      -5.25425541      -4.86349752
H       -0.78371586      -6.62751993      -6.84746960
H       -3.17233480      -7.43678270      -7.02814365
H       -3.27042413      -5.77782248      -7.65446867
H       -4.33102666      -3.88115648      -2.53127536
H       -1.87793792      -5.96039191      -0.92426274
H       -0.65197826      -4.75603583      -0.59918538
H       -2.73233621      -1.67486022      -3.44794777
H       -1.31213944       0.47595404      -2.54818341
C       -4.91393994      -4.90706367      -5.29750998
C       -6.02648897      -4.61629058      -5.66099542
Br      -7.82538666      -4.14613509      -6.24872063
O       -8.97449591       3.96732388       2.65949522
C       -8.06796647       4.43427303       3.66213684
C       -6.84198428       3.58378947       3.74499914
N       -6.88962626       2.30387030       3.32199277
N       -5.62703895       1.86612999       3.49402884
C       -4.79318424       2.78934719       4.06918059
N       -3.50708949       2.48992441       4.36913385
C       -2.86405625       1.29809221       3.81630148
H       -2.08657475       1.00570330       4.53507270
C       -3.88235404       0.14488538       3.76906508
C       -5.23443912       0.51790049       3.12752661
H       -5.99614143      -0.14951447       3.55153791
C       -5.25794037       0.35708031       1.62252264
F       -4.75071910      -0.85297941       1.27273516
F       -6.51678890       0.39207781       1.12722374
F       -4.54147490       1.29141730       0.96863345
C       -2.15176747       1.51786662       2.52003552
C       -2.00907965       2.60481149       1.67910842
C       -1.18493168       2.17981965       0.60845866
C       -0.86680411       0.86680411       0.86680411
O       -1.44634007       0.45789505       2.02717094
C       -5.55903701       3.91467626       4.22956284
H       -8.71254418       3.03546649       2.51069472
H       -8.59364176       4.42170066       4.62191873
H       -7.81438256       5.46983521       3.41849751
H       -2.86659774       3.23533999       4.64152077
H       -4.09177505      -0.14010057       4.81091810
H       -3.45797845      -0.74987668       3.29909770
H       -2.45911722       3.57930534       1.81672164
H       -0.86681761       2.76228417      -0.24473298
C       -5.15494330       5.18164096       4.78192932
C       -4.81651482       6.24272390       5.24453625
Br      -4.26930460       7.95840526       5.99253253
O        8.98220129      -3.92918465       2.68992907
C        8.07249089      -4.40766931       3.68421614
C        6.84089262      -3.56511471       3.76476557
N        6.88331720      -2.28238802       3.34978412
N        5.61708198      -1.85332351       3.51679229
C        4.78539108      -2.78502693       4.08129401
N        3.49571708      -2.49519295       4.37523772
C        2.84880938      -1.30392823       3.82571233
H        2.06524644      -1.02060156       4.54150276
C        3.86035660      -0.14433470       3.79161321
C        5.21852550      -0.50528736       3.15605335
H        5.97359214       0.16412456       3.58869728
C        5.25012797      -0.33519821       1.65221715
F        4.73769190       0.87388039       1.30666334
F        6.51213038      -0.35959549       1.16436458
F        4.54330292      -1.26985451       0.98836821
C        2.14569930      -1.52012465       2.52384566
C        2.01468519      -2.60278725       1.67552711
C        1.19444637      -2.17628491       0.60247871
C        0.86680411      -0.86680411       0.86680411
O        1.43683819      -0.46145600       2.03311187
C        5.55707746      -3.90666855       4.23953011
H        8.71550173      -2.99803844       2.54516522
H        8.59228135      -4.39775101       4.64722879
H        7.82667017      -5.44324465       3.43280047
H        2.85812932      -3.24609759       4.63923158
H        4.06175616       0.13558155       4.83641796
H        3.43340147       0.75068681       3.32448481
H        2.46978992      -3.57536597       1.80998831
H        0.88502498      -2.75546935      -0.25612553
C        5.15735529      -5.17937635       4.78178194
C        4.82258798      -6.24526913       5.23591785
Br       4.28129756      -7.96872761       5.97021721
