98
Properties=species:S:1:pos:R:3 pbc="F F F"
N        1.88333959       0.08697413      -3.54803605
C        2.30634617       1.32326130      -3.01924640
C        1.79879092       1.79879092      -1.79879092
C        2.09589547       3.08690594      -1.34100755
C        2.86645473       3.95542352      -2.11609438
C        3.35939837       3.51520233      -3.34259342
C        3.06374426       2.22050232      -3.79340422
O        3.06607456       5.18675071      -1.56010947
C        3.49303645       6.23194471      -2.41995000
F        3.44969998       7.39748779      -1.73895287
F        4.76325314       6.02975175      -2.82822805
F        2.68459279       6.34110357      -3.49530144
H        2.51595318      -0.29369332      -4.24729702
H        1.61535606      -0.58864654      -2.83667257
H        1.70755826       3.42786483      -0.38322339
H        3.97191990       4.15407824      -3.97217123
C        3.58440730       1.82619580      -5.07677181
C        4.02046259       1.49596409      -6.15159217
Br       4.72552712       0.96200735      -7.88948578
N       -2.13467421      -3.40379984       0.02012428
C       -2.29338593      -3.02668404      -1.32878391
C       -1.79879092      -1.79879092      -1.79879092
C       -2.08143039      -1.34930879      -3.09306979
C       -2.91068271      -2.09071277      -3.93657715
C       -3.43451429      -3.29948580      -3.48319403
C       -3.14239434      -3.74826842      -2.18698804
O       -3.11824815      -1.53016803      -5.16451856
C       -4.22276054      -2.00117507      -5.92099554
F       -4.37690001      -1.20685022      -7.00239041
F       -4.00769124      -3.26183081      -6.35171090
F       -5.36291154      -1.95826470      -5.19982156
H       -2.24637173      -4.40200474       0.17881959
H       -1.29994969      -3.01767836       0.45424595
H       -1.67187679      -0.40370031      -3.44306938
H       -4.07485783      -3.91309708      -4.11021445
C       -3.72635147      -4.99531272      -1.76571072
C       -4.21541556      -6.03971233      -1.41289097
Br      -5.00619083      -7.72841816      -0.84241126
N       -2.26370884       3.31882436      -0.06418342
C       -2.35752255       2.98840736       1.30292397
C       -1.79879092       1.79879092       1.79879092
C       -2.01559154       1.38939895       3.11881848
C       -2.84092418       2.13147916       3.96556929
C       -3.42749492       3.30155822       3.48814097
C       -3.20127204       3.71052955       2.16584921
O       -2.98093738       1.61141340       5.22058395
C       -4.07393383       2.06989943       6.00109790
F       -4.15702103       1.31271900       7.11640060
F       -3.89181899       3.35335698       6.37605697
F       -5.23758635       1.95685957       5.32655189
H       -2.41966266       4.30532199      -0.25542777
H       -1.43141182       2.94751795      -0.51554767
H       -1.55713127       0.47387116       3.48764405
H       -4.06730188       3.91469375       4.11617374
C       -3.84816602       4.91782999       1.72137891
C       -4.38993972       5.92894410       1.34913503
Br      -5.26594198       7.56383010       0.74724817
N        2.57670904       0.13806710       3.07970783
C        2.64181583      -1.23581656       2.77122149
C        1.79879092      -1.79879092       1.79879092
C        1.74967559      -3.18158792       1.59254546
C        2.50358319      -4.04519860       2.38919084
C        3.32758411      -3.51172491       3.37788509
C        3.37772828      -2.12419673       3.57572579
O        2.34948844      -5.36963743       2.09380886
C        2.76111801      -6.31098798       3.07282516
F        2.35831663      -7.54098465       2.68683935
F        4.10537590      -6.32564688       3.19021017
F        2.20549754      -6.04227624       4.27322403
H        3.40676115       0.48843230       3.55122803
H        2.28376708       0.71674607       2.29636109
H        1.10346163      -3.59473274       0.82045211
H        3.93914196      -4.14642588       4.01260152
C        4.23264032      -1.63062378       4.62411082
C        4.94862915      -1.21725643       5.50213327
Br       6.10632253      -0.54887640       6.92182132
C       -0.00445707       0.01189536      -1.78238275
H       -0.66409135       0.67374010      -2.43557963
H        0.65740317      -0.63156657      -2.45157240
C       -0.90989263      -0.90692880      -0.91072765
C        0.90977584       0.90977584      -0.90977584
C       -0.00465871       1.77757030       0.00794375
H       -0.66225468       2.44313916      -0.64384735
H        0.64322798       2.43503045       0.67728295
C       -1.78241447       0.00034974      -0.00472694
H       -2.45427497      -0.65498947       0.64260836
H       -2.43311707       0.67328779      -0.65473579
C       -0.91132561       0.90220522       0.91563759
C       -0.01476271      -0.02253852       1.78660255
H       -0.67934791      -0.69751639       2.42135241
H        0.63392994       0.61504881       2.47327442
C        0.01484550      -1.77751727      -0.01636693
H        0.67870853      -2.42144646      -0.68295456
H       -0.62264859      -2.45592969       0.64226336
C        1.78714474       0.01002794       0.00389507
H        2.44202412       0.67113390       0.66197326
H        2.45385902      -0.65136977      -0.64189061
C        0.91606151      -0.90478549       0.90901405
