77
Properties=species:S:1:pos:R:3 pbc="F F F"
C        0.00000000       0.00000000       0.00000000
N        0.97343556      -0.82292989      -2.63813203
C        1.39644214       0.41335728      -2.10934238
C        0.88888690       0.88888690      -0.88888690
C        1.18599145       2.17700192      -0.43110352
C        1.95655071       3.04551950      -1.20619035
C        2.44949434       2.60529831      -2.43268939
C        2.15384024       1.31059830      -2.88350020
O        2.15617053       4.27684668      -0.65020545
C        2.58313243       5.32204068      -1.51004597
F        2.53979596       6.48758376      -0.82904885
F        3.85334912       5.11984773      -1.91832402
F        1.77468877       5.43119955      -2.58539741
H        1.60604916      -1.20359734      -3.33739300
H        0.70545204      -1.49855056      -1.92676855
H        0.79765423       2.51796081       0.52668064
H        3.06201588       3.24417422      -3.06226720
C        2.67450327       0.91629178      -4.16686779
C        3.11055857       0.58606007      -5.24168814
Br       3.81562310       0.05210333      -6.97958176
N       -1.21849268       0.92769264      -2.49783766
C       -1.51600583      -0.36957182      -2.03356415
C       -0.88888690      -0.88888690      -0.88888690
C       -1.06280297      -2.22361838      -0.50767554
C       -1.82699655      -3.09133209      -1.28993191
C       -2.43760706      -2.60566121      -2.44421378
C       -2.26507243      -1.26496122      -2.81790508
O       -1.90059253      -4.36911940      -0.81351073
C       -2.31706477      -5.38159490      -1.71655941
F       -2.14424975      -6.58463944      -1.12753938
F       -3.62467441      -5.24576841      -2.02107805
F       -1.58419196      -5.35731527      -2.84977850
H       -1.92528489       1.30780432      -3.12236424
H       -0.94582791       1.57093939      -1.75878151
H       -0.58278815      -2.59983442       0.39368817
H       -3.04957888      -3.24323788      -3.07564054
C       -2.90429841      -0.82312006      -4.03024436
C       -3.43965017      -0.45307809      -5.04557851
Br      -4.30526869       0.14524847      -6.68728796
N        1.02761954       1.55697378       2.25928345
C       -0.35976309       1.54923081       2.01014790
C       -0.88888690       0.88888690       0.88888690
C       -2.24171495       1.00150469       0.55087724
C       -3.09329018       1.82036397       1.29460642
C       -2.58543034       2.50613481       2.39591689
C       -1.22978138       2.38423666       2.73392070
O       -4.38305772       1.85337943       0.84678550
C       -5.20210174       2.92505961       1.28805772
F       -6.36307709       2.89474504       0.59860643
F       -5.48867477       2.80188080       2.60096529
F       -4.60955801       4.11706051       1.06466721
H        1.26649907       1.78537217       3.22097171
H        1.50754664       0.73109845       1.91011822
H       -2.63440060       0.46570257      -0.31116876
H       -3.21507767       3.14496559       3.00841404
C       -0.75634157       3.13049635       3.87082492
C       -0.35983572       3.75548885       4.82298220
Br       0.28128069       4.76604886       6.36254000
N       -1.06755862      -1.99782816       1.85836816
C        0.32349684      -1.77273631       1.82290864
C        0.88888690      -0.88888690       0.88888690
C        2.27563795      -0.77294912       0.74550982
C        3.13632235      -1.57631014       1.49562807
C        2.59817273      -2.47933301       2.40997631
C        1.20726798      -2.58654008       2.55413068
O        4.46360838      -1.37409844       1.24551584
C        5.36954556      -2.38420383       1.66146968
F        6.59249679      -2.10046845       1.16346333
F        5.46146244      -2.42282383       3.00723459
F        4.99624707      -3.59606969       1.19896897
H       -1.39241045      -2.39671159       2.73554367
H       -1.61626720      -1.19839518       1.55154205
H        2.69227586      -0.06770300       0.02895555
H        3.23142261      -3.11541375       3.02162094
C        0.70728911      -3.54971030       3.50066342
C        0.28855681      -4.35636537       4.29338460
Br      -0.38849791      -5.66065839       5.57514770
