90
Properties=species:S:1:pos:R:3 pbc="F F F"
N        1.88333959       0.08697413      -3.54803605
C        2.30634617       1.32326130      -3.01924640
C        1.79879092       1.79879092      -1.79879092
C        2.09589547       3.08690594      -1.34100755
C        2.86645473       3.95542352      -2.11609438
C        3.35939837       3.51520233      -3.34259342
C        3.06374426       2.22050232      -3.79340422
Br       3.75232432       1.69902954      -5.49066572
O        3.06607456       5.18675071      -1.56010947
C        3.49303645       6.23194471      -2.41995000
F        3.44969998       7.39748779      -1.73895287
F        4.76325314       6.02975175      -2.82822805
F        2.68459279       6.34110357      -3.49530144
H        2.51595318      -0.29369332      -4.24729702
H        1.61535606      -0.58864654      -2.83667257
H        1.70755826       3.42786483      -0.38322339
H        3.97191990       4.15407824      -3.97217123
N       -1.96840497      -3.50231431      -0.04763049
C       -2.21117668      -3.07039899      -1.36727820
C       -1.79879092      -1.79879092      -1.79879092
C       -2.16590909      -1.30337597      -3.05452390
C       -3.00000300      -2.04431360      -3.89365603
C       -3.44327919      -3.29750837      -3.47640656
C       -3.06664035      -3.79184761      -2.21916285
Br      -3.73192178      -5.50163186      -1.70846593
O       -3.29417375      -1.43750858      -5.08125241
C       -4.41131773      -1.92638356      -5.80722987
F       -4.65595333      -1.09060450      -6.83958281
F       -4.15867089      -3.15318459      -6.30937746
F       -5.51518489      -1.97388823      -5.03192469
H       -2.02499003      -4.51118450       0.06661765
H       -1.13235460      -3.09628073       0.36525323
H       -1.81914131      -0.32324868      -3.37625649
H       -4.08422312      -3.91180944      -4.10213681
N       -2.00964451       3.47901419       0.02969108
C       -2.23152202       3.06013556       1.35719629
C       -1.79879092       1.79879092       1.79879092
C       -2.14499301       1.31417721       3.06463874
C       -2.97790767       2.05518868       3.90487629
C       -3.44113416       3.29792725       3.47813271
C       -3.08541777       3.78156029       2.21067273
Br      -3.77721408       5.47706420       1.68774128
O       -3.25064327       1.45924819       5.10304328
C       -4.36488225       1.94351232       5.83653658
F       -4.58718162       1.11735315       6.88160587
F       -4.12105101       3.17917232       6.32100961
F       -5.47836864       1.96858643       5.07404273
H       -2.07970129       4.48569564      -0.09584005
H       -1.17373685       3.07800428      -0.38835902
H       -1.78267666       0.34217342       3.39379639
H       -4.08193858       3.91204930       4.10418148
N        2.27524611       0.06775080       3.31085446
C        2.49705040      -1.25978127       2.89202220
C        1.79879092      -1.79879092       1.79879092
C        1.89930557      -3.15477467       1.46972872
C        2.65992867      -4.02153398       2.25650998
C        3.34071445      -3.51497392       3.36150574
C        3.24149925      -2.15341076       3.68274080
Br       4.18055276      -1.53976748       5.22169932
O        2.65851892      -5.32027732       1.83413849
C        3.07128149      -6.31112291       2.76252675
F        2.82211315      -7.52916066       2.23486683
F        4.39559599      -6.22028665       3.00535030
F        2.39069733      -6.20682391       3.92347656
H        3.02425510       0.44237071       3.88767249
H        1.99767289       0.69063837       2.55634757
H        1.36462587      -3.54716766       0.60685294
H        3.95246311      -4.15168245       3.99402381
C       -0.00445707       0.01189536      -1.78238275
H       -0.66409135       0.67374010      -2.43557963
H        0.65740317      -0.63156657      -2.45157240
C       -0.90989263      -0.90692880      -0.91072765
C        0.90977584       0.90977584      -0.90977584
C       -0.00465871       1.77757030       0.00794375
H       -0.66225468       2.44313916      -0.64384735
H        0.64322798       2.43503045       0.67728295
C       -1.78241447       0.00034974      -0.00472694
H       -2.45427497      -0.65498947       0.64260836
H       -2.43311707       0.67328779      -0.65473579
C       -0.91132561       0.90220522       0.91563759
C       -0.01476271      -0.02253852       1.78660255
H       -0.67934791      -0.69751639       2.42135241
H        0.63392994       0.61504881       2.47327442
C        0.01484550      -1.77751727      -0.01636693
H        0.67870853      -2.42144646      -0.68295456
H       -0.62264859      -2.45592969       0.64226336
C        1.78714474       0.01002794       0.00389507
H        2.44202412       0.67113390       0.66197326
H        2.45385902      -0.65136977      -0.64189061
C        0.91606151      -0.90478549       0.90901405
