117
Properties=species:S:1:pos:R:3 pbc="F F F"
C        0.00000000       0.00000000       0.00000000
C        2.91775383       4.53208610      -3.70137553
O        3.37992781       3.27967909      -3.21136068
C        2.50654242       2.51670318      -2.48303497
C        1.31001027       3.00782215      -1.94529662
C        0.49760267       2.19133583      -1.15101304
C        0.88152125       0.88152125      -0.88152125
C        2.06437973       0.37233036      -1.40637133
C        2.87567724       1.18328307      -2.21795119
C        4.11934337       0.57270728      -2.74503765
N        4.80857100      -0.28712460      -2.06682120
C        5.94971444      -0.80266596      -2.67495154
C        6.73718941      -1.72661024      -1.98470291
C        7.89551569      -2.24672971      -2.56935715
C        8.26623981      -1.83809031      -3.84994631
Br       9.83544311      -2.53523749      -4.63882535
C        7.48797536      -0.92093578      -4.55071858
C        6.32966167      -0.41303156      -3.95085644
C        5.46866064       0.54411557      -4.65354763
O        5.74645919       0.91460129      -5.78886017
O        4.36276222       0.97939819      -4.00849341
H        3.67997179       4.92671704      -4.38006244
H        2.79731705       5.24861573      -2.88258960
H        1.98913372       4.42178012      -4.27158727
H        0.98735533       4.03145440      -2.10908209
H       -0.42445781       2.59420507      -0.73888821
H        2.36149336      -0.65164811      -1.19069430
H        6.44616917      -2.03926825      -0.98442814
H        8.49788412      -2.96397355      -2.01756522
H        7.77008594      -0.59999890      -5.55062982
C       -2.89373268      -4.50727334      -3.75020943
O       -3.37773911      -3.28479064      -3.20843784
C       -2.50551829      -2.51739393      -2.48336835
C       -1.27895009      -2.98735036      -1.99682859
C       -0.46722026      -2.17032805      -1.20240324
C       -0.88152125      -0.88152125      -0.88152125
C       -2.09457087      -0.39347352      -1.35503703
C       -2.90588731      -1.20441814      -2.16660605
C       -4.18277678      -0.61687813      -2.63743340
N       -4.87616174       0.20081482      -1.91292068
C       -6.05027983       0.69896766      -2.47068785
C       -6.84336216       1.57734041      -1.72926033
C       -8.03406311       2.07884066      -2.26292067
C       -8.43158583       1.69733120      -3.54384118
Br     -10.04432823       2.36916729      -4.26387004
C       -7.64823081       0.82577267      -4.29530002
C       -6.45743940       0.33602323      -3.74607039
C       -5.59029143      -0.57289462      -4.50313779
O       -5.89165062      -0.91775926      -5.64051076
O       -4.45264282      -0.99304354      -3.90496746
H       -3.66433324      -4.90472810      -4.41768993
H       -2.72693616      -5.24383368      -2.95775254
H       -1.98674927      -4.35158434      -4.34416750
H       -0.93113444      -3.99526498      -2.20149239
H        0.47864375      -2.55679953      -0.83047968
H       -2.41528611       0.61402567      -1.09927912
H       -6.53121619       1.86885743      -0.72897030
H       -8.64030267       2.76050695      -1.67168006
H       -7.95121757       0.52624700      -5.29574629
C       -4.50805690       2.89442720       3.74873136
O       -3.20005473       3.30263151       3.36828134
C       -2.49731231       2.48771849       2.52124977
C       -2.85478673       1.16144931       2.24689300
C       -2.05196156       0.36230344       1.42568655
C       -0.88152125       0.88152125       0.88152125
C       -0.50801603       2.19609822       1.13896717
C       -1.31927811       3.00769605       1.94993733
C       -0.86044026       4.39866360       2.17798444
N        0.39272904       4.70605423       2.27494241
C        0.70016412       6.04921932       2.47294482
C        2.03631719       6.43653769       2.59506158
C        2.36836654       7.77743528       2.80907438
C        1.35721175       8.73305842       2.90224913
Br       1.80427931      10.54502950       3.19828078
C        0.02146765       8.36114480       2.77808101
C       -0.29226715       7.01433882       2.56088058
C       -1.68314443       6.57438652       2.40879288
O       -2.60192799       7.38445175       2.46354090
O       -1.90114719       5.25756107       2.19194555
H       -4.97236082       3.72428104       4.29010941
H       -4.46484076       2.03645813       4.42722349
H       -5.13081769       2.67744042       2.87424301
H       -3.74535677       0.70962263       2.67291241
H       -2.34499472      -0.66638173       1.23002248
H        0.40937515       2.59668273       0.71323197
H        2.82136366       5.68694070       2.52575202
H        3.41342258       8.06157610       2.90332226
H       -0.77173887       9.10171677       2.84726121
C        4.64416614      -3.16941735       3.33763197
O        3.22576232      -3.25886358       3.38634168
C        2.50627120      -2.48311854       2.51689083
C        3.05173830      -1.40861921       1.80277152
C        2.24284182      -0.61325376       0.98385597
C        0.88152125      -0.88152125       0.88152125
C        0.31882053      -1.94422924       1.58003166
C        1.12992542      -2.75586844       2.39111763
C        0.46247386      -3.87182623       3.10278823
N       -0.74594875      -3.77833138       3.55588497
C       -1.27031714      -4.89965468       4.19266248
C       -2.56644770      -4.85142593       4.71030385
C       -3.10869104      -5.96007547       5.36675870
C       -2.34830890      -7.12059958       5.50580513
Br      -3.07756677      -8.61770181       6.39889594
C       -1.05652313      -7.18352876       4.99075252
C       -0.53098011      -6.06482106       4.33364559
C        0.81914120      -6.08620071       3.76098192
O        1.51425890      -7.09292500       3.84273674
O        1.24892599      -4.96795753       3.13377029
H        5.05044111      -3.95778071       3.97852945
H        4.98621548      -2.20812590       3.73418100
H        5.02208237      -3.33704698       2.32337176
H        4.10341415      -1.14893312       1.87554454
H        2.68553295       0.21939101       0.44249353
H       -0.74656098      -2.14837685       1.49872369
H       -3.15425030      -3.94259849       4.60298086
H       -4.11868728      -5.90510030       5.76506276
H       -0.45916896      -8.08630422       5.09358160
