138
Properties=species:S:1:pos:R:3 pbc="F F F"
C        3.82765785       5.44199012      -4.61127955
O        4.28983184       4.18958312      -4.12126471
C        3.41644644       3.42660721      -3.39293899
C        2.21991430       3.91772617      -2.85520064
C        1.40750670       3.10123985      -2.06091707
C        1.79142527       1.79142527      -1.79142527
C        2.97428375       1.28223438      -2.31627536
C        3.78558126       2.09318709      -3.12785522
C        5.02924740       1.48261131      -3.65494167
N        5.71847502       0.62277943      -2.97672522
C        6.85961846       0.10723807      -3.58485556
C        7.64709344      -0.81670622      -2.89460693
C        8.80541971      -1.33682569      -3.47926117
C        9.17614383      -0.92818629      -4.75985033
Br      10.74534713      -1.62533346      -5.54872938
C        8.39787938      -0.01103176      -5.46062260
C        7.23956569       0.49687247      -4.86076047
C        6.37856466       1.45401959      -5.56345165
O        6.65636321       1.82450532      -6.69876419
O        5.27266624       1.88930221      -4.91839743
H        4.58987582       5.83662106      -5.28996646
H        3.70722108       6.15851975      -3.79249362
H        2.89903775       5.33168415      -5.18149130
H        1.89725935       4.94135842      -3.01898611
H        0.48544621       3.50410909      -1.64879223
H        3.27139739       0.25825592      -2.10059832
H        7.35607319      -1.12936423      -1.89433216
H        9.40778814      -2.05406953      -2.92746924
H        8.67998996       0.30990513      -6.46053384
C       -4.19445991      -5.55835577      -4.12811185
O       -4.29726193      -4.14044908      -4.16296865
C       -3.42592006      -3.41739971      -3.39267286
C       -2.65326406      -3.97410183      -2.36547522
C       -1.83486484      -3.16434800      -1.57045078
C       -1.79142527      -1.79142527      -1.79142527
C       -2.54867252      -1.21735489      -2.80676609
C       -3.35977838      -2.02843993      -3.61840526
C       -4.13590167      -1.34833927      -4.68255944
N       -4.62822582      -0.16172164      -4.52803221
C       -5.32462759       0.37846291      -5.60554740
C       -5.88623615       1.65189450      -5.49065250
C       -6.60245851       2.20874451      -6.55414120
C       -6.75720771       1.48579866      -7.73639883
Br      -7.73089200       2.23453886      -9.17238990
C       -6.19888662       0.21713666      -7.86572027
C       -5.48223767      -0.32337152      -6.79158943
C       -4.86274728      -1.64963878      -6.88364985
O       -4.95690323      -2.31078946      -7.91194003
O       -4.17940278      -2.09561109      -5.80535201
H       -4.84924728      -5.95965887      -4.90755719
H       -4.54248885      -5.94913979      -3.16660582
H       -3.17424005      -5.89205864      -4.34591449
H       -2.67859731      -5.03638649      -2.14262009
H       -1.24740866      -3.61616538      -0.77477350
H       -2.51324241      -0.14305598      -2.97395324
H       -5.76633920       2.21033204      -4.56503397
H       -7.03438375       3.20061766      -6.44742176
H       -6.31372838      -0.35088955      -8.78581100
C       -5.55897642       4.14570650       4.17624461
O       -4.14218413       4.16096901       4.29752653
C       -3.41782429       3.39256847       3.42559988
C       -3.97754808       2.38255110       2.63274193
C       -3.16749531       1.58763428       1.81453402
C       -1.79142527       1.79142527       1.79142527
C       -1.21428833       2.78955998       2.56894519
C       -2.02536658       3.60119879       3.38005819
C       -1.34183881       4.64653161       4.17842995
N       -0.16372998       4.47046512       4.68378458
C        0.38110250       5.53197531       5.40083928
C        1.64562226       5.39353354       5.97708288
C        2.20668340       6.44055240       6.71398620
C        1.49690912       7.62996676       6.87475024
Br       2.25125096       9.04367594       7.87631807
C        0.23729941       7.78272937       6.30204027
C       -0.30755254       6.72486485       5.56478123
C       -1.62444371       6.84189379       4.92969841
O       -2.27361150       7.87734053       5.02868069
O       -2.07525771       5.77822028       4.22688790
H       -5.95873444       4.92186338       4.83586551
H       -5.96642142       3.18496661       4.50684643
H       -5.87669930       4.38076114       3.15475275
H       -5.04282154       2.17310539       2.64167695
H       -3.62179240       0.80538981       1.21116533
H       -0.13758097       2.94332046       2.54935020
H        2.19373246       4.46239345       5.85238014
H        3.19146690       6.31556532       7.15708943
H       -0.32040307       8.70853053       6.42149533
C        5.54599033      -4.03233449       4.30260271
O        4.13110450      -4.17474354       4.29483163
C        3.41492336      -3.39345215       3.42761713
C        3.94516919      -2.27392326       2.77374866
C        3.13714210      -1.47816379       1.95435772
C        1.79142527      -1.79142527       1.79142527
C        1.24409117      -2.89921636       2.42948597
C        2.05521678      -3.71085413       3.24055266
C        1.40479495      -4.87610165       3.88590378
N        0.17813254      -4.84339187       4.29645526
C       -0.32649261      -6.00601886       4.87218585
C       -1.64137925      -6.02410339       5.34227002
C       -2.16504139      -7.17545755       5.93743903
C       -1.36720249      -8.31214209       6.06286828
Br      -2.07161206      -9.86705271       6.87330240
C       -0.05619712      -8.30899212       5.59467523
C        0.45043379      -7.14817250       4.99859233
C        1.82021960      -7.09926117       4.47655514
O        2.54918635      -8.08256494       4.54788143
O        2.23015928      -5.94348682       3.90671978
H        5.95811280      -4.82897649       4.92937405
H        5.83720209      -3.07485486       4.74617750
H        5.96633200      -4.14805051       3.29783068
H        4.98305147      -1.97931298       2.89523943
H        3.56757659      -0.61035282       1.46041813
H        0.19074787      -3.13853880       2.30096496
H       -2.25858193      -5.13372685       5.24589620
H       -3.19012231      -7.17199010       6.29932005
H        0.57047965      -9.19281122       5.68713806
C       -0.00445707       0.01189536      -1.78238275
H       -0.66409135       0.67374010      -2.43557963
H        0.65740317      -0.63156657      -2.45157240
C       -0.90989263      -0.90692880      -0.91072765
C        0.90977584       0.90977584      -0.90977584
C       -0.00465871       1.77757030       0.00794375
H       -0.66225468       2.44313916      -0.64384735
H        0.64322798       2.43503045       0.67728295
C       -1.78241447       0.00034974      -0.00472694
H       -2.45427497      -0.65498947       0.64260836
H       -2.43311707       0.67328779      -0.65473579
C       -0.91132561       0.90220522       0.91563759
C       -0.01476271      -0.02253852       1.78660255
H       -0.67934791      -0.69751639       2.42135241
H        0.63392994       0.61504881       2.47327442
C        0.01484550      -1.77751727      -0.01636693
H        0.67870853      -2.42144646      -0.68295456
H       -0.62264859      -2.45592969       0.64226336
C        1.78714474       0.01002794       0.00389507
H        2.44202412       0.67113390       0.66197326
H        2.45385902      -0.65136977      -0.64189061
C        0.91606151      -0.90478549       0.90901405
