110
Properties=species:S:1:pos:R:3 pbc="F F F"
C        1.82286775       1.82286775      -1.82286775
C        2.29571490       3.01000542      -1.02690213
C        1.50817525       4.18054913      -1.06345546
C        1.91938883       5.27989557      -0.34250934
O        1.27691619       6.47672995      -0.28208254
C        2.15990200       7.21270214       0.59046379
O        3.29545469       6.44339170       1.03768874
C        3.06547817       5.26131624       0.40798217
C        3.86279871       4.13991886       0.48281814
C        3.48148487       2.98553267      -0.23341780
C        4.37480008       1.77669705      -0.13992208
H        1.21132665       2.12655048      -2.67870818
H        2.64123504       1.20611448      -2.20123433
H        0.59204933       4.23013717      -1.64443913
H        1.59141215       7.54219272       1.46788678
H        2.52432238       8.09716329       0.05497880
H        4.76650753       4.16207921       1.08422309
H        3.83309268       0.83355576      -0.22957936
H        4.92947890       1.75528469       0.80293515
C        5.35163043       1.82473117      -1.19684932
C        6.16972585       1.86495974      -2.08202589
Br       7.49251694       1.93000594      -3.51328153
C       -1.82286775      -1.82286775      -1.82286775
C       -2.90912389      -2.44037626      -0.98312231
C       -2.65224336      -3.69972378      -0.40021270
C       -3.63027683      -4.28489684       0.37337993
O       -3.53765005      -5.49147612       0.99339749
C       -4.83385386      -5.57110517       1.62281867
O       -5.66211329      -4.41578648       1.37674213
C       -4.83694986      -3.67400792       0.59214553
C       -5.13156875      -2.44079997       0.05246930
C       -4.16011112      -1.79717161      -0.74315262
C       -4.51103158      -0.45383940      -1.32654824
H       -1.16987008      -2.58318009      -2.26353514
H       -2.20843466      -1.20393540      -2.63621379
H       -1.70607616      -4.21148355      -0.54906591
H       -4.69246378      -5.67784525       2.70459094
H       -5.35199781      -6.46081435       1.24630529
H       -6.09974529      -1.98794755       0.24332918
H       -3.64644455       0.20051265      -1.45029590
H       -5.24532233       0.07513931      -0.71164542
C       -5.11015598      -0.64042140      -2.62263354
C       -5.61192266      -0.79668383      -3.70810498
Br      -6.42323695      -1.04934697      -5.46322049
C       -1.82286775       1.82286775       1.82286775
C       -1.94421249       1.20023961       3.18817035
C       -3.02172245       0.31707522       3.41338217
C       -3.15360202      -0.26612205       4.65431378
O       -4.13677371      -1.12820790       5.02716288
C       -3.76620183      -1.38258343       6.39852195
O       -2.57385807      -0.68184555       6.80914513
C       -2.26568750      -0.01357890       5.66670365
C       -1.19296050       0.83376749       5.49317143
C       -1.01082530       1.45178186       4.23782819
C        0.16524910       2.37877068       4.07789764
H       -2.79457520       1.89795588       1.32405421
H       -1.38212220       2.82214457       1.84431708
H       -3.74251060       0.09084235       2.63327268
H       -3.60143510      -2.45909566       6.52337864
H       -4.59452514      -1.07586434       7.04784607
H       -0.51137011       1.01412609       6.31886746
H        0.56313450       2.39750456       3.06185774
H        0.98446545       2.11342665       4.75286724
C       -0.23658057       3.71924979       4.41738056
C       -0.57311292       4.84190106       4.70169750
Br      -1.11725726       6.65713319       5.16141396
C        1.82286775      -1.82286775       1.82286775
C        1.61175796      -1.45381132       3.26705318
C        2.45766796      -0.47080535       3.82370653
C        2.28351734      -0.11522923       5.14304717
O        3.01879282       0.80515423       5.82209008
C        2.39801315       0.73908694       7.12321414
O        1.30756413      -0.20310390       7.19048962
C        1.31114718      -0.68702830       5.92063676
C        0.45515238      -1.64415130       5.42059574
C        0.58927377      -2.03866519       4.07249638
C       -0.35428981      -3.09170426       3.55400476
H        2.85730908      -1.65132623       1.50795000
H        1.57777764      -2.86501841       1.60578780
H        3.23655765       0.00619825       3.23626622
H        2.01851052       1.73447113       7.38167870
H        3.15727370       0.45005153       7.85928469
H       -0.30135592      -2.07901326       6.06670632
H       -0.57824507      -2.98302842       2.49144445
H       -1.30366782      -3.08764249       4.09785377
C        0.23181387      -4.39251352       3.74888352
C        0.72267571      -5.48194128       3.91209449
Br       1.51635778      -7.24345383       4.17599281
C       -0.00445707       0.01189536      -1.78238275
H       -0.66409135       0.67374010      -2.43557963
H        0.65740317      -0.63156657      -2.45157240
C       -0.90989263      -0.90692880      -0.91072765
C        0.90977584       0.90977584      -0.90977584
C       -0.00465871       1.77757030       0.00794375
H       -0.66225468       2.44313916      -0.64384735
H        0.64322798       2.43503045       0.67728295
C       -1.78241447       0.00034974      -0.00472694
H       -2.45427497      -0.65498947       0.64260836
H       -2.43311707       0.67328779      -0.65473579
C       -0.91132561       0.90220522       0.91563759
C       -0.01476271      -0.02253852       1.78660255
H       -0.67934791      -0.69751639       2.42135241
H        0.63392994       0.61504881       2.47327442
C        0.01484550      -1.77751727      -0.01636693
H        0.67870853      -2.42144646      -0.68295456
H       -0.62264859      -2.45592969       0.64226336
C        1.78714474       0.01002794       0.00389507
H        2.44202412       0.67113390       0.66197326
H        2.45385902      -0.65136977      -0.64189061
C        0.91606151      -0.90478549       0.90901405
