134
Properties=species:S:1:pos:R:3 pbc="F F F"
C        1.79150115       1.79150115      -1.79150115
C        2.65570075       1.20445182      -2.71270479
C        3.46425836       2.01307226      -3.51791968
C        3.41417113       3.41184437      -3.40978016
C        2.53568655       3.98435239      -2.47606111
C        1.72708581       3.17747871      -1.66864317
C        4.26645202       4.24533488      -4.25252504
N        4.24214005       5.58787334      -4.24970847
O        5.20700294       5.93782598      -5.19149759
C        5.74455866       4.77364861      -5.65630524
N        5.17576555       3.70663509      -5.13832114
C        6.75352071       4.86318610      -6.70497358
C        6.73211040       3.87196237      -7.70680646
C        7.65406835       3.87641433      -8.75601220
C        8.62328859       4.87039655      -8.82065304
C        8.67528629       5.85201854      -7.83207673
C        7.75173912       5.85009089      -6.77569420
H        2.71065307       0.12357677      -2.81287464
H        4.13682352       1.54120560      -4.23239389
H        2.47403716       5.06588197      -2.36575616
H        1.05561586       3.64128537      -0.95060846
H        5.98096736       3.08260073      -7.67413415
H        7.61360130       3.10233122      -9.51892208
H        9.34539168       4.87717843      -9.63367881
H        9.45081041       6.61327218      -7.88725882
C        7.93703622       6.86925840      -5.77541296
C        8.09222253       7.72281120      -4.93767742
Br       8.34314568       9.10293387      -3.58312990
C       -1.79150115      -1.79150115      -1.79150115
C       -1.50709317      -3.14928485      -1.91647934
C       -2.31403953      -3.95511216      -2.72609860
C       -3.41010069      -3.41132732      -3.41436766
C       -3.68089575      -2.04077277      -3.27443154
C       -2.87428379      -1.23259889      -2.46632500
C       -4.24240081      -4.26166679      -4.26024434
N       -5.33728450      -3.83344948      -4.90898787
O       -5.79198548      -4.96914862      -5.57519241
C       -4.91327191      -5.97227321      -5.28896738
N       -3.96569063      -5.59826463      -4.45676653
C       -5.19633099      -7.29685368      -5.82849571
C       -4.89722733      -8.40423643      -5.00941547
C       -5.13836925      -9.71221697      -5.43590866
C       -5.67785915      -9.94019620      -6.69628284
C       -5.96633914      -8.86173413      -7.53130830
C       -5.72416556      -7.54636488      -7.10699378
H       -0.66338178      -3.59103232      -1.39269038
H       -2.07931765      -5.01444169      -2.81666368
H       -4.52216256      -1.58727383      -3.79623889
H       -3.10036096      -0.17341097      -2.37373776
H       -4.47235681      -8.24754955      -4.01779588
H       -4.90243243     -10.54942394      -4.78299822
H       -5.86505369     -10.95653806      -7.03465718
H       -6.37209192      -9.05746448      -8.52178502
C       -5.99618417      -6.51312122      -8.07240220
C       -6.22399975      -5.64777965      -8.88093175
Br      -6.59235827      -4.24859553     -10.18825565
C       -1.79150115       1.79150115       1.79150115
C       -1.37172299       3.07737669       2.12375768
C       -2.17914533       3.88291401       2.93319095
C       -3.41051453       3.41081870       3.41446244
C       -3.81640821       2.11231400       3.06737784
C       -3.00978134       1.30433544       2.25909091
C       -4.24250794       4.25932557       4.26247842
N       -5.45430738       3.90543197       4.71998251
O       -5.85829752       5.00651866       5.47151033
C       -4.84049586       5.91307471       5.42094193
N       -3.84204458       5.51712097       4.66155624
C       -5.03728694       7.19241367       6.09197978
C       -4.50906485       8.33818986       5.46362452
C       -4.65178602       9.60871233       6.02599654
C       -5.32076462       9.75862699       7.23494657
C       -5.83727569       8.63812084       7.88398503
C       -5.69467026       7.35993735       7.32291660
H       -0.42197856       3.46289780       1.76222812
H       -1.83810103       4.88527085       3.18705113
H       -4.76483706       1.71512936       3.42570888
H       -3.34203283       0.30122648       2.00425038
H       -3.97971882       8.24252336       4.51546006
H       -4.23840236      10.47753697       5.51891526
H       -5.43239273      10.74503822       7.67881797
H       -6.34316143       8.76988490       8.83829509
C       -6.20672630       6.26685092       8.10813037
C       -6.63557323       5.35139102       8.76574689
Br      -7.32898245       3.87116981       9.82905720
C        1.79150115      -1.79150115       1.79150115
C        2.86114218      -1.22829541       2.48341977
C        3.66916601      -2.03736705       3.28871723
C        3.41379617      -3.41248947       3.40951004
C        2.33018292      -3.96091989       2.70499724
C        1.52153422      -3.15384851       1.89782496
C        4.26712261      -4.24767969       4.24950963
N        4.06113108      -5.55758204       4.46100874
O        5.10562065      -5.92403152       5.30667435
C        5.86214185      -4.80671228       5.50565838
N        5.36878658      -3.74365490       4.90828030
C        7.00182374      -4.91086932       6.40898732
C        7.27250571      -3.80220036       7.23617316
C        8.33867977      -3.80937796       8.13843716
C        9.16240435      -4.92529228       8.22664156
C        8.92502764      -6.02757994       7.40677399
C        7.85582941      -6.02359369       6.49810111
H        3.07697904      -0.16600003       2.40412541
H        4.50326078      -1.58471512       3.82244711
H        2.10611343      -5.02417539       2.77538647
H        0.68904260      -3.59926988       1.35919720
H        6.63943560      -2.91639645       7.18187019
H        8.52377715      -2.94248046       8.76859699
H        9.99564181      -4.93532077       8.92528634
H        9.58929125      -6.88667072       7.47537945
C        7.74193059      -7.18514137       5.65463562
C        7.64654033      -8.15793755       4.94823327
Br       7.49230234      -9.73086671       3.80604041
C       -0.00445707       0.01189536      -1.78238275
H       -0.66409135       0.67374010      -2.43557963
H        0.65740317      -0.63156657      -2.45157240
C       -0.90989263      -0.90692880      -0.91072765
C        0.90977584       0.90977584      -0.90977584
C       -0.00465871       1.77757030       0.00794375
H       -0.66225468       2.44313916      -0.64384735
H        0.64322798       2.43503045       0.67728295
C       -1.78241447       0.00034974      -0.00472694
H       -2.45427497      -0.65498947       0.64260836
H       -2.43311707       0.67328779      -0.65473579
C       -0.91132561       0.90220522       0.91563759
C       -0.01476271      -0.02253852       1.78660255
H       -0.67934791      -0.69751639       2.42135241
H        0.63392994       0.61504881       2.47327442
C        0.01484550      -1.77751727      -0.01636693
H        0.67870853      -2.42144646      -0.68295456
H       -0.62264859      -2.45592969       0.64226336
C        1.78714474       0.01002794       0.00389507
H        2.44202412       0.67113390       0.66197326
H        2.45385902      -0.65136977      -0.64189061
C        0.91606151      -0.90478549       0.90901405
