113
Properties=species:S:1:pos:R:3 pbc="F F F"
C        0.00000000       0.00000000       0.00000000
C        0.88159713       0.88159713      -0.88159713
C        1.74579672       0.29454780      -1.80280077
C        2.55435433       1.10316823      -2.60801565
C        2.50426711       2.50194035      -2.49987614
C        1.62578252       3.07444837      -1.56615709
C        0.81718179       2.26757469      -0.75873914
C        3.35654799       3.33543085      -3.34262102
N        3.33223602       4.67796932      -3.33980444
O        4.29709891       5.02792196      -4.28159357
C        4.83465463       3.86374459      -4.74640121
N        4.26586153       2.79673107      -4.22841711
C        5.84361669       3.95328207      -5.79506955
C        5.82220638       2.96205834      -6.79690243
C        6.74416433       2.96651031      -7.84610817
C        7.71338457       3.96049253      -7.91074902
C        7.76538227       4.94211452      -6.92217270
C        6.84183510       4.94018687      -5.86579018
H        1.80074905      -0.78632725      -1.90297061
H        3.22691949       0.63130158      -3.32248987
H        1.56413314       4.15597794      -1.45585214
H        0.14571184       2.73138134      -0.04070443
H        5.07106334       2.17269670      -6.76423013
H        6.70369728       2.19242720      -8.60901805
H        8.43548766       3.96727441      -8.72377479
H        8.54090639       5.70336816      -6.97735480
C        7.02713219       5.95935438      -4.86550894
C        7.18231851       6.81290717      -4.02777340
Br       7.43324166       8.19302985      -2.67322588
C       -0.88159713      -0.88159713      -0.88159713
C       -1.20558839      -2.17108668      -0.46647022
C       -2.01126119      -2.97826828      -1.27600875
C       -2.49949843      -2.50312718      -2.50345799
C       -2.16265869      -1.20014287      -2.90358642
C       -1.35578968      -0.39154432      -2.09616161
C       -3.33583970      -3.35673885      -3.34202131
N       -3.88577915      -2.96242756      -4.50180307
O       -4.58063154      -4.08829579      -4.93768712
C       -4.36320446      -5.06781139      -4.01378458
N       -3.63615385      -4.65771902      -2.99713684
C       -5.03305013      -6.34767163      -4.21124655
C       -5.50836109      -7.01086581      -3.06194026
C       -6.16820054      -8.23877030      -3.14981198
C       -6.35991189      -8.83347622      -4.39123800
C       -5.88376493      -8.20496143      -5.54094313
C       -5.21914333      -6.97205694      -5.45661187
H       -0.83826892      -2.55913945       0.48001596
H       -2.25517688      -3.98497338      -0.94056067
H       -2.52327570      -0.80195868      -3.85072884
H       -1.10519470       0.61342102      -2.42602394
H       -5.36722198      -6.56232458      -2.07844360
H       -6.52902693      -8.72809920      -2.24801640
H       -6.87044503      -9.79073936      -4.46535246
H       -6.02632245      -8.69166720      -6.50363969
C       -4.71112983      -6.44443876      -6.69642692
C       -4.28566852      -6.00255854      -7.73477202
Br      -3.59773358      -5.28807559      -9.41368822
C       -0.88159713       0.88159713       0.88159713
C       -0.62161388       0.97471575       2.24681566
C       -1.43129969       1.78076167       3.05347686
C       -2.50391337       2.49961557       2.50255465
C       -2.74884442       2.39341641       1.12412715
C       -1.94117733       1.58668620       0.31563209
C       -3.34495909       3.33408451       3.35555626
N       -4.35515362       4.09329641       2.90155975
O       -4.85895096       4.69545976       4.05220372
C       -4.12340501       4.22248719       5.09890824
N       -3.15857864       3.41278078       4.71965029
C       -4.41899115       4.74567525       6.42730192
C       -3.32794507       4.95960306       7.29361903
C       -3.50969663       5.46356491       8.58352127
C       -4.79013260       5.75745057       9.03704295
C       -5.88674560       5.53834898       8.20457491
C       -5.70834490       5.03084926       6.90861798
H        0.20347611       0.42663707       2.69423145
H       -1.21833574       1.84294574       4.11942945
H       -3.57394993       2.93630454       0.66570875
H       -2.14976546       1.51691161      -0.74887946
H       -2.31548118       4.73443904       6.95806995
H       -2.65061925       5.62347773       9.23104554
H       -4.93782112       6.14735647      10.04135926
H       -6.88420199       5.75700874       8.58041861
C       -6.91216248       4.78082103       6.15901201
C       -7.92035970       4.57142238       5.53121700
Br      -9.55052934       4.23284247       4.51612558
C        0.88159713      -0.88159713       0.88159713
C        2.13228449      -1.28815187       0.42270893
C        2.93773990      -2.09749765       1.23030067
C        2.50074631      -2.50456446       2.50077284
C        1.23746752      -2.08323915       2.94568131
C        0.42956207      -1.27489535       2.13903819
C        3.34854095      -3.35328323       3.33277568
N        3.02966703      -3.74270672       4.57763604
O        4.11466450      -4.52452408       4.96742586
C        4.97647233      -4.55755611       3.91077199
N        4.56921860      -3.82446544       2.89732568
C        6.23360787      -5.27575549       4.08260496
C        7.38047545      -4.72190411       3.47878759
C        8.63102945      -5.33354983       3.59220353
C        8.75897494      -6.51843603       4.30721514
C        7.63593065      -7.09455108       4.89918776
C        6.37767984      -6.48386147       4.78627083
H        2.49028045      -0.98478741      -0.55767544
H        3.91227188      -2.40987145       0.85856761
H        0.86790761      -2.38294928       3.92510633
H       -0.54606929      -0.96188339       2.50198351
H        7.30179017      -3.79378393       2.91241606
H        9.50141261      -4.88356735       3.12016257
H        9.72961111      -7.00051400       4.39641174
H        7.74934256      -8.03140486       5.44088192
C        5.27601778      -7.19730101       5.37867672
C        4.35337581      -7.79480662       5.87481666
Br       2.86154177      -8.76092265       6.67703297
