126
Properties=species:S:1:pos:R:3 pbc="F F F"
C        1.79222642       1.79222642      -1.79222642
C        1.32060769       3.03045122      -2.22017679
C        2.12368485       3.83342891      -3.02964942
C        3.39747304       3.39773426      -3.40284363
C        3.88172290       2.15609371      -2.96416602
C        5.24459089       1.66976483      -3.39160620
N        5.13738202       0.82825656      -4.58679393
S        6.55994687       0.09626856      -5.10057446
O        6.29580562      -0.49944663      -6.38950387
O        7.63668933       1.04272503      -4.90661898
C        6.92446286      -1.24689770      -4.00027605
C        8.02442173      -1.52982112      -3.20937611
C        7.87136572      -2.74908120      -2.48473736
C        6.66086567      -3.33458032      -2.75708976
Br       6.10512225      -4.95706353      -2.00348150
S        5.71106212      -2.44592213      -3.84208436
C        3.06102608       1.34788358      -2.16204397
H        0.33059345       3.37696529      -1.93501554
H        1.75685864       4.79810291      -3.37251371
H        4.00801022       4.03496214      -4.03907939
H        5.70125659       1.11204279      -2.56645729
H        5.88303554       2.53625620      -3.59903480
H        4.66917104       1.27901334      -5.37266196
H        8.89688848      -0.88797032      -3.16659534
H        8.61386764      -3.16368005      -1.81358010
H        3.41440704       0.37330477      -1.83456404
C       -1.79222642      -1.79222642      -1.79222642
C       -2.09966102      -3.08747912      -1.38409556
C       -2.90055181      -3.89451773      -2.19169363
C       -3.39585435      -3.40104158      -3.40115500
C       -3.09869241      -2.09243600      -3.81085422
C       -3.60657593      -1.56804144      -5.13134455
N       -2.60404704      -1.76648977      -6.18189569
S       -2.97030587      -1.10430885      -7.68217517
O       -1.98145547      -1.58643606      -8.61797133
O       -4.38687030      -1.28866942      -7.91049363
C       -2.74482482       0.65281983      -7.58583623
C       -3.60098839       1.71513154      -7.81811986
C       -2.96567261       2.97665912      -7.61800840
C       -1.65673569       2.81389423      -7.24053364
Br      -0.49429897       4.24292035      -6.90016160
S       -1.19009573       1.19100461      -7.10813323
C       -2.27969841      -1.29220966      -2.99904557
H       -1.71804607      -3.47963496      -0.44489326
H       -3.13734920      -4.90938244      -1.88074361
H       -4.01468201      -4.04650694      -4.02086279
H       -3.84948099      -0.50491766      -5.02535801
H       -4.53188693      -2.09483181      -5.39160780
H       -2.29866065      -2.73362671      -6.28855899
H       -4.63200634       1.58140087      -8.12490803
H       -3.44823787       3.93719795      -7.75272777
H       -2.02211431      -0.28455623      -3.31560531
C       -1.79222642       1.79222642       1.79222642
C       -1.29919326       3.00460321       2.26743923
C       -2.10245248       3.80740652       3.07690417
C       -3.39761653       3.39758756       3.40284684
C       -3.90306349       2.18244449       2.91647466
C       -5.29014164       1.72304847       3.29277181
N       -5.23948805       0.84657485       4.46636962
S       -6.69533993       0.14102670       4.92042326
O       -6.48379812      -0.49680020       6.19886493
O       -7.74000075       1.12224575       4.72378686
C       -7.06535956      -1.16087412       3.77335577
C       -8.15001394      -1.39115888       2.94512167
C       -8.01001289      -2.59401072       2.19101971
C       -6.82404906      -3.22043845       2.47976449
Br      -6.29185584      -4.83670749       1.69639187
S       -5.88115912      -2.38869416       3.61475939
C       -3.08254696       1.37371810       2.11468857
H       -0.29248744       3.33086666       2.01922018
H       -1.71920752       4.75170178       3.45656595
H       -4.00814632       4.03409398       4.03981145
H       -5.73853098       1.20106911       2.44015657
H       -5.91027802       2.60112276       3.50692576
H       -4.78137853       1.26241859       5.27704922
H       -9.00310420      -0.72416487       2.89657417
H       -8.74443398      -2.96916109       1.48849480
H       -3.45305860       0.41872888       1.75048837
C        1.79222642      -1.79222642       1.79222642
C        1.97334778      -3.13334078       1.46454713
C        2.77431624      -3.93986340       2.27258354
C        3.39589212      -3.40063197       3.40152684
C        3.22606621      -2.04692180       3.72899463
C        3.87096603      -1.46994584       4.96505005
N        2.94109782      -1.51425760       6.09707709
S        3.46897325      -0.77639421       7.51142244
O        2.52345558      -1.11209825       8.55030902
O        4.88205336      -1.05296510       7.65101489
C        3.36346956       0.98144777       7.29581943
C        4.30910689       1.98823897       7.38310879
C        3.75243999       3.27751735       7.13209925
C        2.40991601       3.18986250       6.86332160
Br       1.33024609       4.67642837       6.49772250
S        1.81910266       1.60265128       6.89077298
C        2.40628068      -1.24607461       2.91859835
H        1.49301637      -3.56121066       0.58834726
H        2.91285021      -4.98971158       2.02491347
H        4.01287514      -4.04588526       4.02329135
H        4.18064997      -0.43917381       4.75993288
H        4.77342186      -2.04671823       5.19818645
H        2.57622659      -2.44469488       6.29992487
H        5.34850398       1.79748915       7.62449866
H        4.31170798       4.20501345       7.15707316
H        2.24699252      -0.20138581       3.17389752
C       -0.00445707       0.01189536      -1.78238275
H       -0.66409135       0.67374010      -2.43557963
H        0.65740317      -0.63156657      -2.45157240
C       -0.90989263      -0.90692880      -0.91072765
C        0.90977584       0.90977584      -0.90977584
C       -0.00465871       1.77757030       0.00794375
H       -0.66225468       2.44313916      -0.64384735
H        0.64322798       2.43503045       0.67728295
C       -1.78241447       0.00034974      -0.00472694
H       -2.45427497      -0.65498947       0.64260836
H       -2.43311707       0.67328779      -0.65473579
C       -0.91132561       0.90220522       0.91563759
C       -0.01476271      -0.02253852       1.78660255
H       -0.67934791      -0.69751639       2.42135241
H        0.63392994       0.61504881       2.47327442
C        0.01484550      -1.77751727      -0.01636693
H        0.67870853      -2.42144646      -0.68295456
H       -0.62264859      -2.45592969       0.64226336
C        1.78714474       0.01002794       0.00389507
H        2.44202412       0.67113390       0.66197326
H        2.45385902      -0.65136977      -0.64189061
C        0.91606151      -0.90478549       0.90901405
