113
Properties=species:S:1:pos:R:3 pbc="F F F"
C        0.00000000       0.00000000       0.00000000
C        0.88232240       0.88232240      -0.88232240
C        0.41070367       2.12054719      -1.31027277
C        1.21378082       2.92352489      -2.11974539
C        2.48756901       2.48783024      -2.49293960
C        2.97181887       1.24618969      -2.05426200
C        4.33468686       0.75986081      -2.48170218
N        4.22747799      -0.08164746      -3.67688991
S        5.65004284      -0.81363546      -4.19067044
O        5.38590159      -1.40935065      -5.47959984
O        6.72678531       0.13282101      -3.99671496
C        6.01455884      -2.15680172      -3.09037203
C        7.11451771      -2.43972515      -2.29947208
C        6.96146170      -3.65898522      -1.57483334
C        5.75096164      -4.24448435      -1.84718574
S        4.80115810      -3.35582615      -2.93218034
C        2.15112205       0.43797956      -1.25213995
H       -0.57931057       2.46706127      -1.02511152
H        0.84695461       3.88819888      -2.46260969
H        3.09810620       3.12505811      -3.12917536
H        4.79135257       0.20213876      -1.65655326
H        4.97313151       1.62635218      -2.68913077
H        3.75926701       0.36910932      -4.46275794
H        7.98698445      -1.79787434      -2.25669131
H        7.70396362      -4.07358407      -0.90367607
H        2.50450302      -0.53659925      -0.92466001
C        5.32376185      -5.49168668      -1.26788730
C        4.96598203      -6.53621863      -0.78272486
Br       4.38748231      -8.22513846       0.00174178
C       -0.88232240      -0.88232240      -0.88232240
C       -0.41084844      -2.12070783      -1.30996735
C       -1.21392443      -2.92368667      -2.11944000
C       -2.48756810      -2.48783120      -2.49293956
C       -2.97167449      -1.24602584      -2.05457023
C       -4.33437922      -0.75952992      -2.48234071
N       -4.22680657       0.08174568      -3.67765954
S       -5.64914886       0.81389595      -4.19182491
O       -5.38467099       1.40933369      -5.48081349
O       -6.72609500      -0.13233353      -3.99789274
C       -6.01362142       2.15732382      -3.09183155
C       -7.11367097       2.44058497      -2.30117865
C       -6.96052659       3.65994712      -1.57673035
C       -5.74987334       4.24518138      -1.84897107
S       -4.80003479       3.35615976      -2.93363725
C       -2.15097659      -0.43781902      -1.25244595
H        0.57905294      -2.46734777      -1.02456738
H       -0.84720932      -3.88848740      -2.46206647
H       -3.09810546      -3.12506366      -3.12917055
H       -4.79109266      -0.20157893      -1.65737300
H       -4.97294159      -1.62594429      -2.68972859
H       -3.75853577      -0.36923509      -4.46336341
H       -7.98625999       1.79889766      -2.25843909
H       -7.70307429       4.07479846      -0.90577979
H       -2.50424193       0.53688137      -0.92520321
C       -5.32255423       5.49241085      -1.26981909
C       -4.96467448       6.53696554      -0.78477931
Br      -4.38601319       8.22592212      -0.00051101
C       -0.88232240       0.88232240       0.88232240
C       -2.03111356       0.34932824       1.46108183
C       -2.83913658       1.15586784       2.26204668
C       -2.49190724       2.49036693       2.48606469
C       -1.32888016       3.02856669       1.91482371
C       -0.96855306       4.47790565       2.12979114
N       -1.48549378       5.30295670       1.03426996
S       -1.04188421       6.92342641       1.06176720
O       -1.81387903       7.59790061       0.04437114
O       -1.05545465       7.35995915       2.44090748
C        0.65469207       7.04540845       0.55741276
C        1.77461987       7.57095810       1.17792642
C        2.94642910       7.45046608       0.37327284
C        2.66253357       6.83660366      -0.82040706
S        1.03554338       6.39349365      -0.98043798
C       -0.52940129       2.21386185       1.09797842
H       -2.30904096      -0.68775484       1.29157609
H       -3.74133611       0.74616741       2.71025967
H       -3.13685055       3.10619897       3.10929015
H        0.12091307       4.56965247       2.20130520
H       -1.39241448       4.81258759       3.08361240
H       -2.49054685       5.21514146       0.88544597
H        1.74129743       8.02581137       2.16128748
H        3.92967685       7.80272252       0.66100995
H        0.36180867       2.62445618       0.62991627
C        3.64851058       6.58867441      -1.84020136
C        4.47426634       6.38103367      -2.69427908
Br       5.80944355       6.04529615      -4.07525053
C        0.88232240      -0.88232240       0.88232240
C        2.20545830      -0.51818984       1.11787548
C        3.01220788      -1.32604171       1.91880151
C        2.49090856      -2.49146576       2.48596454
C        1.15482295      -2.85616072       2.26128689
C        0.59860312      -4.13055606       2.84709068
N        0.70980527      -5.22935198       1.88356319
S        0.00247118      -6.68312539       2.34148125
O        0.40219041      -7.67907182       1.37488856
O        0.23829089      -6.86029616       3.75773423
C       -1.75726000      -6.52032556       2.18506359
C       -2.79027068      -6.67077365       3.09376168
C       -4.06871108      -6.44280322       2.50321768
C       -3.94719288      -6.12729313       1.17356277
S       -2.34190722      -6.08464472       0.63477478
C        0.35426511      -2.04515069       1.44182576
H        2.61933421       0.38655326       0.68008127
H        4.04837714      -1.04971900       2.09966704
H        3.13628962      -3.11232379       3.10372626
H       -0.44771609      -3.96872270       3.12903798
H        1.15367190      -4.37478110       3.76016147
H        1.65758020      -5.39029990       1.54325417
H       -2.62491335      -6.94006300       4.13065177
H       -5.01224258      -6.51574671       3.03055149
H       -0.67583713      -2.32824637       1.24015454
C       -5.07150689      -5.85565362       0.31581575
C       -6.01311988      -5.62815552      -0.40254739
Br      -7.53562845      -5.26031034      -1.56407982
