162
Properties=species:S:1:pos:R:3 pbc="F F F"
O        7.38961842       5.62064671      -4.70530086
C        6.18694731       5.42757462      -4.85637443
C        5.35718641       4.76497502      -3.75488529
O        4.19463149       4.14166641      -4.29991002
C        3.44816221       3.40964723      -3.41625340
C        3.35449443       3.65579001      -2.04804383
C        2.53152370       2.86368814      -1.22624011
C        2.46678405       3.18283724       0.24424989
C        1.80354666       1.80354666      -1.80354666
C        1.88177636       1.55300372      -3.18708720
C        1.12307154       0.43600259      -3.85184600
C        2.70226332       2.37355591      -3.97873780
N        5.41555959       5.82917313      -5.93421493
C        5.82467788       6.53932961      -7.07811263
C        7.14118107       6.93969822      -7.31805906
C        7.46760532       7.64970825      -8.47942505
C        6.47514689       7.96477858      -9.40278793
Br       6.91633755       8.92644967     -10.96817328
C        5.15831616       7.57411028      -9.17713895
C        4.83635634       6.86144379      -8.01833088
H        5.07887221       5.56453379      -3.05924928
H        5.98922682       4.01750754      -3.26161423
H        3.90057822       4.47617273      -1.59288605
H        1.43438948       3.37775566       0.55176346
H        3.04496181       4.08151573       0.48606265
H        2.88206036       2.35850606       0.83250664
H        1.30639154       0.41248348      -4.93185477
H        0.04517175       0.56592599      -3.71088515
H        1.43640487      -0.53264090      -3.44955867
H        2.77564714       2.19688158      -5.05079928
H        4.43841095       5.55561921      -5.88491956
H        7.94302640       6.71245324      -6.62261956
H        8.49896091       7.94884455      -8.64696595
H        4.37728995       7.81848553      -9.89217436
H        3.80172330       6.56816863      -7.85992166
O       -6.03165689      -4.48176426      -7.20214484
C       -5.62863452      -4.76446951      -6.07779234
C       -4.99976808      -3.69604999      -5.18122865
O       -4.12832851      -4.28899577      -4.21888365
C       -3.41493057      -3.41078308      -3.44834918
C       -3.82940041      -2.12621899      -3.10270887
C       -3.03643544      -1.30935457      -2.27566193
C       -3.54103329       0.06741570      -1.93175380
C       -1.80354666      -1.80354666      -1.80354666
C       -1.38017553      -3.10451775      -2.13717400
C       -0.07469698      -3.67927110      -1.65695206
C       -2.20470943      -3.89683452      -2.95301308
N       -5.74812604      -5.98895932      -5.44186230
C       -6.34994174      -7.16457730      -5.92760107
C       -6.91984721      -7.28162488      -7.19746626
C       -7.50580398      -8.48571300      -7.60522163
C       -7.52650954      -9.57585471      -6.74034915
Br      -8.32105987     -11.19940726      -7.29049337
C       -6.96405620      -9.47438521      -5.47112399
C       -6.37586823      -8.27175283      -5.06850996
H       -5.83246324      -3.18329932      -4.68689273
H       -4.43910818      -3.00644628      -5.82279413
H       -4.78184856      -1.73795362      -3.44983483
H       -3.60791658       0.19397508      -0.84644017
H       -4.54569031       0.23902491      -2.33374950
H       -2.88350726       0.83226847      -2.35682097
H        0.06797949      -4.70561698      -2.01309231
H       -0.04773664      -3.71130736      -0.56293888
H        0.76594758      -3.08702530      -2.03224493
H       -1.89577265      -4.90596149      -3.22159388
H       -5.33040854      -6.03175296      -4.51678822
H       -6.92282304      -6.45468197      -7.90059419
H       -7.94090902      -8.55510398      -8.59875841
H       -6.97846348     -10.32035842      -4.78912794
H       -5.94470246      -8.21268148      -4.07242965
O       -4.66739534       5.67968373       7.36848692
C       -4.93552103       5.30430551       6.23106982
C       -4.11883072       4.19813793       5.56007807
O       -4.19940449       4.29820159       4.13860184
C       -3.40122475       3.43305403       3.43978406
C       -2.99850667       2.17546482       3.88435678
C       -2.20181217       1.34425588       3.07538389
C       -1.80378986      -0.00694010       3.60852163
C       -1.80354666       1.80354666       1.80354666
C       -2.21432813       3.06805480       1.33948435
C       -1.81847327       3.60293637      -0.01048951
C       -3.02146798       3.86448282       2.16860623
N       -6.00141047       5.72451755       5.45301964
C       -7.00297308       6.65635783       5.78278921
C       -7.05541730       7.34875704       6.99476401
C       -8.08965152       8.25677203       7.25031506
C       -9.07758050       8.47128207       6.29385082
Br     -10.47513176       9.69435110       6.64147763
C       -9.03996533       7.78775522       5.08184485
C       -8.00337316       6.88474012       4.82801774
H       -4.54513987       3.25029154       5.90722387
H       -3.07786184       4.30369788       5.88678887
H       -3.30794055       1.80501268       4.85668377
H       -2.13142993      -0.80125964       2.93021139
H       -2.26806902      -0.20798440       4.58033028
H       -0.71928071      -0.05836897       3.74714803
H       -2.24609102       4.59550207      -0.19086330
H       -2.18291277       2.94570971      -0.80663960
H       -0.73050504       3.70222595      -0.07940835
H       -3.35051852       4.84503186       1.82777763
H       -6.04202773       5.31092666       4.52599534
H       -6.30350765       7.20946308       7.76512846
H       -8.10913975       8.78649715       8.19913450
H       -9.80905040       7.94794929       4.33095015
H       -7.99399293       6.35935553       3.87646512
O        5.23120671      -7.47564003       5.00871925
C        5.09263753      -6.26093002       5.11732880
C        3.97241447      -5.53225146       4.37238080
O        4.30471547      -4.15861634       4.17287612
C        3.42613990      -3.44451922       3.40340372
C        2.06240624      -3.70644963       3.28947240
C        1.23411710      -2.89147214       2.49586271
C       -0.23332700      -3.22136483       2.41733357
C        1.80354666      -1.80354666       1.80354666
C        3.17850356      -1.52272719       1.92063653
C        3.83385272      -0.37253607       1.20453134
C        3.97183999      -2.34922571       2.73349133
N        5.81767231      -5.41809996       5.94317539
C        6.85569152      -5.75479815       6.83163045
C        7.34951709      -7.05065807       6.99876319
C        8.38194277      -7.30586541       7.90893043
C        8.92060834      -6.26401805       8.65808700
Br      10.31155102      -6.61038889       9.88902059
C        8.43813387      -4.96746597       8.50396555
C        7.40985866      -4.71521951       7.59105285
H        3.07731678      -5.62826211       4.99707638
H        3.83221630      -6.03015495       3.40597734
H        1.60923596      -4.53384267       3.82655837
H       -0.83867871      -2.36573824       2.73332215
H       -0.49343770      -4.05550220       3.07835039
H       -0.50476837      -3.51451585       1.39831228
H        4.90401280      -0.31427832       1.43243867
H        3.38660797       0.57787570       1.51325062
H        3.74022067      -0.49259217       0.12050981
H        5.03702620      -2.14830068       2.83800113
H        5.56744149      -4.43579958       5.87570865
H        6.95623111      -7.88917943       6.43268866
H        8.75259531      -8.32142410       8.02075199
H        8.85185464      -4.14903381       9.08706139
H        7.04570688      -3.69624207       7.48786463
C       -0.00445707       0.01189536      -1.78238275
H       -0.66409135       0.67374010      -2.43557963
H        0.65740317      -0.63156657      -2.45157240
C       -0.90989263      -0.90692880      -0.91072765
C        0.90977584       0.90977584      -0.90977584
C       -0.00465871       1.77757030       0.00794375
H       -0.66225468       2.44313916      -0.64384735
H        0.64322798       2.43503045       0.67728295
C       -1.78241447       0.00034974      -0.00472694
H       -2.45427497      -0.65498947       0.64260836
H       -2.43311707       0.67328779      -0.65473579
C       -0.91132561       0.90220522       0.91563759
C       -0.01476271      -0.02253852       1.78660255
H       -0.67934791      -0.69751639       2.42135241
H        0.63392994       0.61504881       2.47327442
C        0.01484550      -1.77751727      -0.01636693
H        0.67870853      -2.42144646      -0.68295456
H       -0.62264859      -2.45592969       0.64226336
C        1.78714474       0.01002794       0.00389507
H        2.44202412       0.67113390       0.66197326
H        2.45385902      -0.65136977      -0.64189061
C        0.91606151      -0.90478549       0.90901405
