117
Properties=species:S:1:pos:R:3 pbc="F F F"
C        0.00000000       0.00000000       0.00000000
O        3.59951393       5.27638941      -2.33557282
C        3.06454804       5.29989966      -1.23276509
N        2.31080281       4.28401621      -0.66356271
C        2.02054188       3.01436225      -1.19675032
C        1.22153096       2.16312969      -0.42288774
C        0.88598457       0.88598457      -0.88598457
C        1.35082658       0.44433949      -2.12429318
O        1.01917420      -0.80854728      -2.56682178
C        2.15012220       1.29053015      -2.89522656
C        2.48191007       2.56954831      -2.43774330
C        3.09514108       6.55053275      -0.32931372
H        2.19043572       7.12665856      -0.55363798
C        4.34344610       7.39431002      -0.52621661
C        5.27068079       6.83476666       0.52405914
C        4.31507793       6.54004337       1.65831422
O        3.06237243       6.16915006       1.06047588
H        1.98152195       4.49005196       0.27754747
H        0.84970509       2.49164281       0.54483102
H        1.43136059      -0.93538019      -3.44075587
H        3.10639949       3.19853665      -3.06404340
H        4.12000536       8.44205354      -0.29065851
H        4.76823953       7.35954119      -1.53278677
H        5.72311988       5.90363254       0.16282377
H        6.07441527       7.51855670       0.80897927
H        4.66699161       5.73354966       2.30740676
H        4.14119777       7.43162057       2.27045030
C        2.64989884       0.86115937      -4.17564214
C        3.06846178       0.50156134      -5.24799018
Br       3.74524264      -0.07987826      -6.98188627
O       -3.47900084      -2.40804494      -5.32443038
C       -2.78770995      -1.39924529      -5.41025754
N       -2.04248701      -0.82491792      -4.39097680
C       -1.89003068      -1.27523493      -3.06638883
C       -1.08353011      -0.50587635      -2.21814192
C       -0.88598457      -0.88598457      -0.88598457
C       -1.48732337      -2.04220905      -0.38992683
O       -1.28500035      -2.40696375       0.91451540
C       -2.28877360      -2.81184674      -1.23525858
C       -2.49292658      -2.43111838      -2.56515672
C       -2.71919824      -0.55539186      -6.70039745
H       -3.48398299       0.22425359      -6.61100285
C       -2.92375638      -1.37996559      -7.96025077
C       -1.50725015      -1.73912908      -8.33500908
C       -0.75685758      -0.48146810      -7.95848138
O       -1.43026126       0.07898449      -6.81976984
H       -1.50994457      -0.00604175      -4.67804011
H       -0.60757474       0.39922277      -2.58816491
H       -1.77979510      -3.23122022       1.07427905
H       -3.12120715      -3.05513862      -3.19263377
H       -3.35725477      -0.74934855      -8.74611409
H       -3.56776085      -2.25471033      -7.83809632
H       -1.16209582      -2.58000768      -7.72182515
H       -1.38698811      -2.00986634      -9.38713824
H        0.29039729      -0.67378387      -7.70974792
H       -0.79497944       0.25815815      -8.76554675
C       -2.91883866      -4.01391166      -0.75395002
C       -3.44651815      -5.02064104      -0.35085411
Br      -4.29973125      -6.64843730       0.30091790
O       -3.26574151       2.55525154       5.39048310
C       -2.49486910       1.60771022       5.49463346
N       -1.78222425       1.01145684       4.46470064
C       -1.75928862       1.36869917       3.10366666
C       -0.95860148       0.59593983       2.25300708
C       -0.88598457       0.88598457       0.88598457
C       -1.60786169       1.95512058       0.35647698
O       -1.52734662       2.23235833      -0.98225626
C       -2.40375483       2.72829338       1.20383071
C       -2.48305616       2.43698898       2.56915654
C       -2.27035561       0.87216213       6.83246981
H       -2.97759607       0.03555327       6.85758291
C       -2.44735508       1.77416535       8.04245231
C       -1.03946443       2.26079720       8.28112667
C       -0.22363337       1.03454863       7.93862508
O       -0.93140172       0.34206344       6.89758146
H       -1.16946654       0.25692240       4.76763750
H       -0.38961757      -0.24201558       2.64891489
H       -2.09392273       3.00467787      -1.16186432
H       -3.11106757       3.06097102       3.19694096
H       -2.77429500       1.17636364       8.90205877
H       -3.16351613       2.58896631       7.90808505
H       -0.80420886       3.07465203       7.58506776
H       -0.86577627       2.61918657       9.29902986
H        0.78546839       1.28123455       7.59736834
H       -0.14750529       0.35807514       8.79678761
C       -3.15666294       3.84210561       0.68793180
C       -3.78722349       4.77492335       0.25586646
Br      -4.80678656       6.28321075      -0.44274665
O        2.82843629      -5.43930910       2.94373078
C        1.99179509      -5.55080266       2.05461503
N        1.35460454      -4.51244522       1.39133196
C        1.54073423      -3.12806869       1.56285153
C        0.76139453      -2.27502562       0.77112823
C        0.88598457      -0.88598457       0.88598457
C        1.79521128      -0.33555903       1.78868894
O        1.91154753       1.02515305       1.89105422
C        2.57507682      -1.18470227       2.57609983
C        2.44829826      -2.57303733       2.46786609
C        1.45696552      -6.92328643       1.59473561
H        0.55717494      -7.12782773       2.18572959
C        2.47696931      -8.03914582       1.74785761
C        3.14146782      -8.04643384       0.39348665
C        1.97956604      -7.74257172      -0.52533069
O        1.08970105      -6.87990702       0.20143855
H        0.71552846      -4.81832058       0.66017740
H        0.04675547      -2.68719612       0.06256529
H        2.58853356       1.21708860       2.56529131
H        3.07230792      -3.20126855       3.09540307
H        1.95798658      -8.99320122       1.90152961
H        3.18498595      -7.90568791       2.56989364
H        3.88368969      -7.24123763       0.33900133
H        3.64018643      -8.98926147       0.15454480
H        2.29164987      -7.25380200      -1.45231737
H        1.42720183      -8.65390696      -0.77874075
C        3.52663149      -0.64662407       3.51344478
C        4.32355853      -0.19598359       4.29847118
Br       5.61212216       0.53266397       5.56779246
