193
Properties=species:S:1:pos:R:3 pbc="F F F"
C        0.00000000       0.00000000       0.00000000
C        0.88143003       0.88143003      -0.88143003
C        0.59520033       1.00872216      -2.23858709
C        1.40214852       1.81804461      -3.04577220
C        2.50004753       2.50575149      -2.50454524
C        2.77047610       2.36150786      -1.13453316
C        1.96605598       1.55379278      -0.32431389
C        3.35680813       3.36140975      -3.32346026
O        3.02344895       3.47606751      -4.65098323
C        3.96505470       4.32292343      -5.15546038
C        4.07788781       4.77298777      -6.46364884
C        5.14128802       5.65088971      -6.71374475
C        6.03414164       6.04826445      -5.69809695
C        7.16977631       6.99716885      -6.01091117
C        8.43078774       6.30362167      -6.47908096
C        8.62879947       6.05041469      -7.85143457
C        9.78316685       5.41701318      -8.32825377
C       10.71386535       5.05906328      -7.36313143
O       11.91575612       4.45037945      -7.56492855
C       12.44489195       4.33034637      -6.30314380
N       11.67335892       4.80232554      -5.33875288
C       10.56848133       5.27280028      -6.00452842
C        9.40469954       5.90135272      -5.53964737
C       13.77056571       3.71963223      -6.21171901
C       14.47003189       3.29791845      -7.35431335
C       15.74175784       2.72595995      -7.24689039
C       16.32544751       2.57097874      -5.99212022
Br      18.04564855       1.80173280      -5.84678416
C       15.64936787       2.98010394      -4.84545383
C       14.37744530       3.55254110      -4.95726292
C        5.87764309       5.55000199      -4.38724870
C        4.81568073       4.67546211      -4.12314054
N        4.42046450       4.05931882      -2.96278215
H       -0.24989113       0.48598470      -2.67939769
H        1.16235749       1.90530679      -4.10384865
H        3.61660142       2.88390650      -0.68938989
H        2.19582606       1.45922377       0.73393003
H        3.38513644       4.46444618      -7.23626117
H        5.26923704       6.03201105      -7.72585303
H        7.39362716       7.61051408      -5.12772482
H        6.84418349       7.72016386      -6.77117011
H        7.87128655       6.35525799      -8.57248609
H        9.94729090       5.22313097      -9.38028185
H        9.27639535       6.07495766      -4.47644365
H       14.03161095       3.41235704      -8.34384600
H       16.26418243       2.40910407      -8.14622077
H       16.09923952       2.86231535      -3.86307592
H       13.85757912       3.87127514      -4.05419563
H        6.55282958       5.83165219      -3.58642116
C       -0.88143003      -0.88143003      -0.88143003
C       -2.21901483      -1.07741782      -0.54607692
C       -3.02702532      -1.88384329      -1.35509671
C       -2.50612767      -2.50019741      -2.50401918
C       -1.15497589      -2.28975698      -2.82178425
C       -0.34416884      -1.48410493      -2.01588888
C       -3.32850643      -3.34369845      -3.36947326
O       -4.64701635      -3.48999066      -3.01349268
C       -5.16215403      -4.29942975      -3.98185473
C       -6.46914718      -4.75368943      -4.09168782
C       -6.73578204      -5.57354219      -5.19659825
C       -5.73740843      -5.91028713      -6.13280749
C       -6.06729089      -6.79928459      -7.31128085
C       -5.91692185      -8.27671475      -7.01985377
C       -7.00810523      -9.01037258      -6.51217092
C       -6.91431141     -10.37973611      -6.23438628
C       -5.68136466     -10.96180919      -6.49288620
O       -5.33727058     -12.26912058      -6.32467295
C       -4.02578103     -12.32354383      -6.72905727
N       -3.52599511     -11.16482997      -7.12361225
C       -4.57494153     -10.29043313      -6.98043537
C       -4.68013025      -8.91812728      -7.24744211
C       -3.38595915     -13.63762018      -6.67833763
C       -4.08220659     -14.78251619      -6.25754090
C       -3.45568820     -16.03250382      -6.22641616
C       -2.12403471     -16.14737139      -6.61714038
Br      -1.27812636     -17.83702778      -6.57901137
C       -1.41364214     -15.02524174      -7.03604176
C       -2.04432110     -13.77652447      -7.06640375
C       -4.42195330      -5.42819410      -5.96474637
C       -4.14356977      -4.60375861      -4.86695499
N       -2.98216356      -3.99129301      -4.46910889
H       -2.64407606      -0.60995826       0.33854306
H       -4.06981402      -2.02476315      -1.07693575
H       -0.72563792      -2.75668143      -3.70757847
H        0.69882070      -1.33599536      -2.28394515
H       -7.22984764      -4.48695668      -3.36903947
H       -7.74834266      -5.95307587      -5.32568259
H       -5.43632766      -6.52736501      -8.16817340
H       -7.09205010      -6.59392383      -7.64954354
H       -7.95854833      -8.51008629      -6.33039601
H       -7.74772281     -10.95316525      -5.84981567
H       -3.82026193      -8.37805584      -7.62947889
H       -5.12398612     -14.71357615      -5.95025170
H       -4.01628987     -16.90453425      -5.89868314
H       -0.37415943     -15.10788235      -7.34258902
H       -1.48038089     -12.90497397      -7.39769503
H       -3.63078624      -5.67593750      -6.66417919
C       -0.88143003       0.88143003       0.88143003
C       -1.73478934       0.29480820       1.81291203
C       -2.54116060       1.10297737       2.62182735
C       -2.50170226       2.50172280       2.50691921
C       -1.63519053       3.07097172       1.56035487
C       -0.82733692       2.26660891       0.75021682
C       -3.32952269       3.37000061       3.34215484
O       -4.13824788       2.74948839       4.26276342
C       -4.77184991       3.77932260       4.89226600
C       -5.70191813       3.69356613       5.91904018
C       -6.19520818       4.91608988       6.39462443
C       -5.76951435       6.14946752       5.86152117
C       -6.32806771       7.44660016       6.40318845
C       -7.60131488       7.89389965       5.71827584
C       -8.85278278       7.46938980       6.20847615
C      -10.05521396       7.86422734       5.60899250
C       -9.93117723       8.69815012       4.50673270
O      -10.93877880       9.23134325       3.76094207
C      -10.28959317       9.97940271       2.80938625
N       -8.97057383       9.94885050       2.89501301
C       -8.73173796       9.13743242       3.97663965
C       -7.53495769       8.72883637       4.58190558
C      -11.13849759      10.70119582       1.86222355
C      -12.53998930      10.64635635       1.93591804
C      -13.33463313      11.35268478       1.02729026
C      -12.73186637      12.12163452       0.03504559
Br     -13.80530492      13.07947096      -1.19061038
C      -11.34402809      12.18900356      -0.05810600
C      -10.55251851      11.48137981       0.85335100
C       -4.82897132       6.17595149       4.80997097
C       -4.32454427       4.96086420       4.32887491
N       -3.40784165       4.68999688       3.34472695
H       -1.78178195      -0.78599481       1.91970413
H       -3.20121025       0.62620986       3.34409281
H       -1.58551758       4.15377735       1.45060288
H       -0.16402395       2.73168258       0.02541328
H       -6.02034928       2.74142047       6.32407404
H       -6.92643908       4.89918982       7.20147222
H       -5.57032348       8.23770497       6.32383762
H       -6.50715400       7.34603597       7.48232750
H       -8.89950669       6.81866732       7.08085662
H      -11.02123655       7.54846981       5.98099736
H       -6.58634360       9.06482222       4.17663085
H      -13.02978796      10.05263957       2.70538645
H      -14.41755306      11.29598716       1.10596704
H      -10.86709461      12.78746241      -0.82992623
H       -9.46750214      11.54228024       0.77326751
H       -4.48771837       7.10884857       4.37433599
C        0.88143003      -0.88143003       0.88143003
C        0.96044268      -2.24956639       0.63250050
C        1.76975615      -3.05682260       1.43938658
C        2.50561535      -2.50471262       2.50001630
C        2.40956630      -1.12368409       2.73326672
C        1.60202320      -0.31337095       1.92876850
C        3.36237806      -3.32362769       3.35567239
O        3.42821599      -4.66315065       3.05913304
C        4.28790053      -5.16516523       3.99037275
C        4.70281573      -6.48243437       4.12927432
C        5.60459417      -6.72767189       5.17365643
C        6.05805029      -5.69881565       6.02363710
C        7.03110973      -6.00674281       7.14000379
C        6.36239296      -6.41690435       8.43419305
C        6.07534061      -7.77467678       8.68063134
C        5.46326165      -8.19839604       9.86677611
C        5.16171860      -7.19623213      10.77810932
O        4.58378193      -7.34452707      12.00275512
C        4.51653659      -6.06481491      12.49703063
N        4.99304908      -5.13794063      11.68344762
C        5.41051526      -5.84947831      10.58581645
C        6.01711856      -5.43781561       9.39076547
C        3.94883869      -5.91647477      13.83660350
C        3.51518710      -7.02500722      14.58206936
C        2.98505708      -6.86341990      15.86613121
C        2.88432817      -5.58807589      16.41614242
Br       2.17165856      -5.36960696      18.15289998
C        3.30622333      -4.47441498      15.69428734
C        3.83669780      -4.64040469      14.41014682
C        5.59374532      -4.37871464       5.84243382
C        4.69577774      -4.11953622       4.79896942
N        4.10213771      -2.95321315       4.38721461
H        0.39992901      -2.69893149      -0.18336924
H        1.81888911      -4.12358420       1.22903962
H        2.96989883      -0.66994980       3.55004918
H        1.54529372       0.75348524       2.12931132
H        4.35121106      -7.26530168       3.46933105
H        5.95971374      -7.74660898       5.32077840
H        7.67639201      -5.13622482       7.31924924
H        7.72152497      -6.79754328       6.81644923
H        6.33614155      -8.52633914       7.93654994
H        5.24380418      -9.23889354      10.06800601
H        6.21771820      -4.38449884       9.22557962
H        3.58750557      -8.02989286      14.17041555
H        2.65794718      -7.73721300      16.42434708
H        3.23069309      -3.47624331      16.11769439
H        4.16587000      -3.76285977      13.85432012
H        5.91877730      -3.56736135       6.48476428
