198
Properties=species:S:1:pos:R:3 pbc="F F F"
C        1.79161432       1.79161432      -1.79161432
C        2.13724001       1.36646002      -3.07057650
C        2.93792963       2.18198776      -3.87733258
C        3.40404123       3.42725193      -3.41694637
C        3.04853083       3.82781335      -2.12314742
C        2.24153039       3.01851267      -1.31415533
C        4.27200064       4.23798979      -4.34271549
O        4.56536166       3.72646373      -5.43530484
C        4.86427528       5.60407213      -3.91383729
H        5.69894269       5.74543838      -4.61960410
O        5.46667794       5.52015972      -2.61676122
C        5.97890166       6.71045198      -2.18278220
C        6.91715627       6.63826108      -1.15067138
C        7.51209249       7.80081956      -0.66301993
C        7.15937825       9.03139592      -1.21184544
Br       7.97475818      10.61181875      -0.56726915
C        6.21012231       9.10843005      -2.23144530
C        5.59139763       7.94264863      -2.71435689
C        4.54981479       8.01207444      -3.81366388
H        5.04833390       8.40027155      -4.71123689
C        3.33577653       8.88059420      -3.46755443
C        2.29947317       7.87676677      -3.08143073
N        2.64728392       6.62572752      -3.41749385
N        3.92915262       6.72048995      -4.12377762
C        1.02865454       8.18504937      -2.40950987
C        0.10875389       7.17215773      -2.09456585
C       -1.10198477       7.45777365      -1.45553868
C       -1.41651737       8.77024259      -1.11702508
C       -0.52147102       9.79240299      -1.42181459
C        0.68788142       9.50015494      -2.06415838
H        1.78712311       0.41411212      -3.45689923
H        3.19378059       1.84631620      -4.88068217
H        3.35730933       4.79342905      -1.72973570
H        1.96539897       3.37500817      -0.32612508
H        7.18466732       5.67019427      -0.73836982
H        8.24401803       7.73391090       0.13511336
H        5.93554021      10.07193700      -2.65182974
H        3.53409406       9.59614093      -2.66428345
H        2.99161984       9.42948397      -4.35310020
H        0.33990228       6.14186638      -2.35829934
H       -1.79009609       6.64924349      -1.23056856
H       -2.35537342       8.99489732      -0.62146060
H       -0.75753023      10.82000949      -1.16507920
H        1.36478552      10.31617402      -2.29567980
C       -1.79161432      -1.79161432      -1.79161432
C       -1.93271893      -3.14419150      -1.49736610
C       -2.74858605      -3.94548462      -2.30317931
C       -3.42938023      -3.40782589      -3.41103341
C       -3.26384268      -2.04564841      -3.69000052
C       -2.45399775      -1.23768016      -2.88252048
C       -4.27678738      -4.34099256      -4.23492598
O       -4.27454136      -5.53998225      -3.91260662
C       -5.03503074      -3.85237584      -5.49477813
H       -5.23282092      -4.78737925      -6.04378501
O       -4.17829338      -3.08050036      -6.34480514
C       -4.81191622      -2.60282513      -7.45739450
C       -3.98831112      -2.20487536      -8.51290225
C       -4.54900728      -1.72954822      -9.69737647
C       -5.93469259      -1.65265690      -9.81527012
Br      -6.70353013      -1.02483300     -11.42548295
C       -6.75976764      -2.03360682      -8.75662321
C       -6.20129533      -2.49483126      -7.55227656
C       -7.08495846      -2.90116820      -6.38942645
H       -7.67835846      -3.76458994      -6.71689395
C       -8.00882224      -1.78554561      -5.88955731
C       -7.30360716      -1.28025051      -4.67381300
N       -6.31622065      -2.09690246      -4.27738219
N       -6.34162551      -3.25543587      -5.17635881
C       -7.62616282      -0.03481297      -3.96223798
C       -6.91185424       0.35413153      -2.81775477
C       -7.21295798       1.53732892      -2.13569849
C       -8.24032548       2.35884395      -2.58926877
C       -8.96503350       1.99274313      -3.72045619
C       -8.66038015       0.80545045      -4.39726503
H       -1.42617106      -3.58681975      -0.64514365
H       -2.86208400      -5.00007253      -2.05862243
H       -3.79048400      -1.57381948      -4.51617061
H       -2.37105380      -0.18011431      -3.11536411
H       -2.91030062      -2.27687873      -8.40605205
H       -3.90098704      -1.42811047     -10.51371805
H       -7.83988281      -1.96638362      -8.85304051
H       -8.16887180      -0.99604874      -6.62959790
H       -8.98249193      -2.19675499      -5.59495709
H       -6.10915046      -0.28172511      -2.44919244
H       -6.64130307       1.80421617      -1.25262907
H       -8.47643817       3.27732485      -2.06187118
H       -9.77024733       2.62427272      -4.08158385
H       -9.24468212       0.54059795      -5.27255517
C       -1.79161432       1.79161432       1.79161432
C       -1.76722843       3.17374994       1.63329816
C       -2.58342944       3.97618085       2.43763968
C       -3.42949723       3.40984826       3.40889404
C       -3.42899327       2.01705988       3.55343846
C       -2.61922132       1.20884059       2.74613647
C       -4.26598083       4.34439405       4.24233104
O       -4.11173575       5.56179317       4.05360132
C       -5.20035022       3.82012669       5.36170780
H       -5.36419994       4.71294324       5.98684199
O       -4.52026980       2.88065617       6.20267292
C       -5.31432580       2.36809147       7.18971857
C       -4.65277048       1.78206912       8.27124913
C       -5.38224003       1.25690461       9.33678734
C       -6.77338681       1.31947468       9.30975812
Br      -7.76979744       0.62442008      10.75962856
C       -7.43771644       1.88914490       8.22313632
C       -6.70967089       2.40253935       7.13619290
C       -7.41819107       3.01385039       5.94351164
H       -7.95640360       3.90035536       6.30308339
C       -8.38696113       2.05909014       5.23787389
C       -7.60690044       1.60151614       4.04925409
N       -6.50736249       2.34115567       3.84198713
N       -6.51676306       3.40225244       4.85440470
C       -7.97053231       0.47384769       3.17883377
C       -7.17783411       0.12343475       2.07420861
C       -7.51736366      -0.94786675       1.24183065
C       -8.66312147      -1.69356541       1.50119423
C       -9.46689811      -1.36332640       2.58917485
C       -9.12288836      -0.28784557       3.41715194
H       -1.13052418       3.63998424       0.88762605
H       -2.56621921       5.05567039       2.29888936
H       -4.08560482       1.52665894       4.26821032
H       -2.66568031       0.13085975       2.86999216
H       -3.56768131       1.74692445       8.27862565
H       -4.85904967       0.80874584      10.17502006
H       -8.52329043       1.93026558       8.20575094
H       -8.70259375       1.22310720       5.86881749
H       -9.27813265       2.60017895       4.89589241
H       -6.28168011       0.70150345       1.85688444
H       -6.88219946      -1.18760056       0.39511707
H       -8.92926104      -2.52512895       0.85685241
H      -10.36430710      -1.93611626       2.79936762
H       -9.76992008      -0.04799457       4.25471383
C        1.79161432      -1.79161432       1.79161432
C        2.01201099      -1.44204808       3.12021746
C        2.81340457      -2.25795874       3.92588667
C        3.40489984      -3.42811213       3.41522757
C        3.17384531      -3.75278709       2.07285921
C        2.36681039      -2.94334665       1.26404135
C        4.26437769      -4.24358359       4.34474465
O        4.43942513      -3.79757564       5.49012947
C        4.98834929      -5.52734539       3.86649002
H        5.77914905      -5.66263977       4.62219635
O        5.67315828      -5.30191425       2.62852636
C        6.30443443      -6.41614076       2.15156064
C        7.30534091      -6.19877997       1.20196785
C        8.02056849      -7.27544552       0.67991798
C        7.72491584      -8.56632279       1.11138098
Br       8.70248455     -10.03091454       0.42044699
C        6.71432698      -8.78832483       2.04734585
C        5.97553097      -7.70978082       2.56309135
C        4.86687705      -7.93686857       3.57180749
H        5.32861977      -8.35618663       4.47503594
C        3.75046984      -8.86039231       3.07306302
C        2.67047687      -7.90611139       2.68108241
N        2.89684645      -6.66290493       3.13075391
N        4.12880453      -6.72013100       3.92448467
C        1.47789191      -8.25157259       1.89374927
C        0.50791786      -7.28545412       1.58210549
C       -0.62898468      -7.60662139       0.83369085
C       -0.81738586      -8.90837138       0.37976477
C        0.12929960      -9.88469648       0.67875047
C        1.26408076      -9.55728538       1.43082860
H        1.56353806      -0.54930971       3.54528669
H        2.97093308      -1.98268398       4.96716189
H        3.58272369      -4.66111436       1.63663603
H        2.18961679      -3.24194344       0.23497199
H        7.52663623      -5.18547046       0.88112472
H        8.80006043      -7.09588475      -0.05312961
H        6.48507649      -9.79821970       2.37601077
H        4.05947256      -9.49651588       2.23853000
H        3.38728199      -9.49844931       3.88847271
H        0.64028091      -6.26454342       1.93524367
H       -1.35919580      -6.83416853       0.61474323
H       -1.69874083      -9.16057391      -0.20084858
H       -0.00864976     -10.90382093       0.33238728
H        1.98325334     -10.33848318       1.65490281
C       -0.00445707       0.01189536      -1.78238275
H       -0.66409135       0.67374010      -2.43557963
H        0.65740317      -0.63156657      -2.45157240
C       -0.90989263      -0.90692880      -0.91072765
C        0.90977584       0.90977584      -0.90977584
C       -0.00465871       1.77757030       0.00794375
H       -0.66225468       2.44313916      -0.64384735
H        0.64322798       2.43503045       0.67728295
C       -1.78241447       0.00034974      -0.00472694
H       -2.45427497      -0.65498947       0.64260836
H       -2.43311707       0.67328779      -0.65473579
C       -0.91132561       0.90220522       0.91563759
C       -0.01476271      -0.02253852       1.78660255
H       -0.67934791      -0.69751639       2.42135241
H        0.63392994       0.61504881       2.47327442
C        0.01484550      -1.77751727      -0.01636693
H        0.67870853      -2.42144646      -0.68295456
H       -0.62264859      -2.45592969       0.64226336
C        1.78714474       0.01002794       0.00389507
H        2.44202412       0.67113390       0.66197326
H        2.45385902      -0.65136977      -0.64189061
C        0.91606151      -0.90478549       0.90901405
