158
Properties=species:S:1:pos:R:3 pbc="F F F"
C        1.79180213       1.79180213      -1.79180213
C        1.31382363       3.02263086      -2.23489118
C        2.11962529       3.82692285      -3.04035233
C        3.40157722       3.40104768      -3.40173180
C        3.88410730       2.16376118      -2.95517415
C        3.06813593       1.35868380      -2.14640512
C        5.24816789       1.65890798      -3.30238978
O        5.60931572       0.58330488      -2.83467394
C        6.12738582       2.49559361      -4.21369736
C        7.49638059       1.89342466      -4.52748166
O        8.22415845       2.82989428      -5.32855445
C        8.30989919       1.54704168      -3.24172217
O        8.63779754       2.33929709      -2.37100500
N        8.66665757       0.20682356      -3.32131627
C        8.18058606      -0.37332482      -4.48516693
C        8.32338054      -1.68630124      -4.88177712
C        7.75702951      -2.05250116      -6.10629673
C        7.07824233      -1.10247019      -6.89165982
C        6.93934026       0.22314586      -6.47172194
C        7.49194999       0.57298495      -5.25057157
H        0.31910111       3.36297712      -1.95793836
H        1.74805602       4.78918146      -3.38598217
H        3.99904036       4.05739829      -4.02788464
H        3.43148392       0.39546602      -1.79250677
H        6.27924488       3.47032475      -3.73233627
H        5.58831324       2.67132176      -5.15313534
H        8.60720831       3.47747939      -4.70713518
H        9.18824018      -0.26747292      -2.60051288
H        8.84801885      -2.41264840      -4.27206975
H        7.84815175      -3.08075699      -6.44830606
H        6.42649105       0.95952551      -7.08115110
C        6.51497327      -1.50487185      -8.15435570
C        6.04323542      -1.84188324      -9.21186349
Br       5.28047523      -2.38680216     -10.92176415
C       -1.79180213      -1.79180213      -1.79180213
C       -2.81632809      -1.21592508      -2.53909249
C       -3.62121288      -2.02200804      -3.34367955
C       -3.40149332      -3.40178870      -3.40107468
C       -2.37002909      -3.98198931      -2.65102423
C       -1.56479059      -3.16594148      -1.84249278
C       -2.08258581      -5.44921922      -2.67766062
O       -1.13321478      -5.87026899      -2.02381077
C       -2.97213277      -6.35352187      -3.51102214
C       -2.61424782      -7.83843874      -3.46460036
O       -3.49152221      -8.53812620      -4.35295877
C       -1.12911328      -8.11157619      -3.85797358
O       -0.60835524      -7.81639946      -4.92334493
N       -0.54683386      -8.82800546      -2.81995808
C       -1.45336747      -9.04742138      -1.79163933
C       -1.21705470      -9.70113393      -0.60066780
C       -2.28670849      -9.81615037       0.29203379
C       -3.54862961      -9.28536699      -0.03343536
C       -3.76882188      -8.62189908      -1.24348711
C       -2.69919207      -8.50091655      -2.11539789
H       -2.99388922      -0.14395479      -2.50217257
H       -4.42092141      -1.57330255      -3.92899568
H       -4.04808741      -3.99462199      -4.04161389
H       -0.75980938      -3.60437877      -1.25526855
H       -2.91341460      -6.01496973      -4.55352158
H       -4.00995322      -6.22354504      -3.17927208
H       -3.11208022      -8.43381244      -5.24593022
H        0.41934612      -9.11617054      -2.82445572
H       -0.24263761     -10.10805357      -0.35674902
H       -2.13466552     -10.32306910       1.24203380
H       -4.74383634      -8.22229120      -1.50104011
C       -4.63563833      -9.42888009       0.90006131
C       -5.54600813      -9.54907230       1.68186477
Br      -7.01799911      -9.74341295       2.94597485
C       -1.79180213       1.79180213       1.79180213
C       -2.63922073       1.20419664       2.72792830
C       -3.44429639       2.01022237       3.53238171
C       -3.40158020       3.40172949       3.40104702
C       -2.54821271       3.99403206       2.46079786
C       -1.74194184       3.17771944       1.65356357
C       -2.45378171       5.47544311       2.28024083
O       -1.64936298       5.91412965       1.46380191
C       -3.35173695       6.37217962       3.11276021
C       -3.19867961       7.86958716       2.84902014
O       -4.05147476       8.57344030       3.75769212
C       -1.72658365       8.36123494       3.01084445
O       -1.05234968       8.26982557       4.02592437
N       -1.36653905       8.99825060       1.83000774
C       -2.40647362       8.97540323       0.91055133
C       -2.39654996       9.49077462      -0.36846815
C       -3.56782692       9.36402849      -1.12103034
C       -4.70355267       8.73833632      -0.57445703
C       -4.69412729       8.21771094       0.72236984
C       -3.52449255       8.33586330       1.45515065
H       -2.67827580       0.12332707       2.83841371
H       -4.10563462       1.55261208       4.26497294
H       -4.04184910       3.99459444       4.04787975
H       -1.07429022       3.62557753       0.91958896
H       -3.12944358       6.18177803       4.17068429
H       -4.39495951       6.08114641       2.93666443
H       -3.56121444       8.63115035       4.59945809
H       -0.45227297       9.39403438       1.67497278
H       -1.51834026       9.97199146      -0.78289152
H       -3.59391157       9.75661428      -2.13482503
H       -5.57230787       7.74540632       1.14945347
C       -5.90034729       8.63231934      -1.36820953
C       -6.90266279       8.54353013      -2.03297725
Br      -8.52332217       8.39996548      -3.10785044
C        1.79180213      -1.79180213       1.79180213
C        1.21228189      -2.56172114       2.79734264
C        2.01836035      -3.36629135       3.60224877
C        3.40178265      -3.40107060       3.40150345
C        3.98568396      -2.62823182       2.38912686
C        3.16959119      -1.81985350       1.58378016
C        5.45705302      -2.63005625       2.12235638
O        5.88205400      -1.95681782       1.18842272
C        6.36054890      -3.46322099       3.01290690
C        7.84954970      -3.39074477       2.67699244
O        8.54943157      -4.28160570       3.55156991
C        8.14920660      -3.75893954       1.19051690
O        7.87667583      -4.82080909       0.65061471
N        8.85885391      -2.70269854       0.63324495
C        9.05072813      -1.68446165       1.55723840
C        9.69060351      -0.48112954       1.34712338
C        9.77773877       0.39771144       2.43079775
C        9.23392013       0.04676831       3.68028015
C        8.58479168      -1.17554714       3.87386925
C        8.49139376      -2.03368600       2.79042675
H        0.13749537      -2.54246836       2.96005285
H        1.56683968      -3.96925886       4.38712111
H        3.99454017      -4.04236929       4.04741383
H        3.61089282      -1.21504768       0.79351622
H        6.03780747      -4.50944507       2.93465337
H        6.21121440      -3.14821840       4.05333755
H        8.46326568      -5.17043983       3.15811736
H        9.16065255      -2.68930852      -0.32868093
H       10.10769503      -0.21758043       0.38216475
H       10.27310878       1.35684465       2.29943670
H        8.17519709      -1.45263313       4.83933744
C        9.34871789       0.96654979       4.78228900
C        9.44486101       1.73686677       5.70522142
Br       9.60031631       2.98240418       7.19752508
C       -0.00445707       0.01189536      -1.78238275
H       -0.66409135       0.67374010      -2.43557963
H        0.65740317      -0.63156657      -2.45157240
C       -0.90989263      -0.90692880      -0.91072765
C        0.90977584       0.90977584      -0.90977584
C       -0.00465871       1.77757030       0.00794375
H       -0.66225468       2.44313916      -0.64384735
H        0.64322798       2.43503045       0.67728295
C       -1.78241447       0.00034974      -0.00472694
H       -2.45427497      -0.65498947       0.64260836
H       -2.43311707       0.67328779      -0.65473579
C       -0.91132561       0.90220522       0.91563759
C       -0.01476271      -0.02253852       1.78660255
H       -0.67934791      -0.69751639       2.42135241
H        0.63392994       0.61504881       2.47327442
C        0.01484550      -1.77751727      -0.01636693
H        0.67870853      -2.42144646      -0.68295456
H       -0.62264859      -2.45592969       0.64226336
C        1.78714474       0.01002794       0.00389507
H        2.44202412       0.67113390       0.66197326
H        2.45385902      -0.65136977      -0.64189061
C        0.91606151      -0.90478549       0.90901405
