137
Properties=species:S:1:pos:R:3 pbc="F F F"
C        0.00000000       0.00000000       0.00000000
C        0.88189810       0.88189810      -0.88189810
C        0.40391961       2.11272683      -1.32498715
C        1.20972126       2.91701882      -2.13044831
C        2.49167320       2.49114366      -2.49182778
C        2.97420328       1.25385716      -2.04527013
C        2.15823190       0.44877978      -1.23650110
C        4.33826387       0.74900396      -2.39248576
O        4.69941169      -0.32659915      -1.92476992
C        5.21748180       1.58568959      -3.30379333
C        6.58647657       0.98352063      -3.61757764
O        7.31425443       1.91999025      -4.41865043
C        7.39999517       0.63713766      -2.33181814
O        7.72789351       1.42939307      -1.46110097
N        7.75675355      -0.70308047      -2.41141225
C        7.27068204      -1.28322884      -3.57526291
C        7.41347652      -2.59620526      -3.97187310
C        6.84712548      -2.96240519      -5.19639270
C        6.16833831      -2.01237422      -5.98175580
C        6.02943624      -0.68675816      -5.56181792
C        6.58204596      -0.33691908      -4.34066755
H       -0.59080291       2.45307309      -1.04803433
H        0.83815200       3.87927743      -2.47607814
H        3.08913633       3.14749427      -3.11798062
H        2.52157989      -0.51443800      -0.88260274
H        5.36934086       2.56042072      -2.82243225
H        4.67840922       1.76141774      -4.24323132
H        7.69730428       2.56757537      -3.79723115
H        8.27833616      -1.17737694      -1.69060885
H        7.93811483      -3.32255242      -3.36216572
H        6.93824772      -3.99066101      -5.53840204
H        5.51658702       0.04962149      -6.17124708
C        5.60506924      -2.41477588      -7.24445167
C        5.13333140      -2.75178727      -8.30195946
Br       4.37057120      -3.29670618     -10.01186012
C       -0.88189810      -0.88189810      -0.88189810
C       -2.23609442      -0.58671357      -1.01882560
C       -3.04052852      -1.39272579      -1.82393409
C       -2.49133889      -2.49196248      -2.49134325
C       -1.12878314      -2.78888090      -2.35566652
C       -0.32519815      -1.97512078      -1.54319385
C       -0.48397436      -3.94556906      -3.05021016
O        0.72423996      -4.11022662      -2.91159581
C       -1.34678048      -4.86348976      -3.89669447
C       -0.60616075      -6.02734178      -4.55407231
O       -1.53690131      -6.74663088      -5.36936291
C        0.60611014      -5.55787276      -5.41718835
O        0.54912500      -4.79631988      -6.37119268
N        1.73056883      -6.23432227      -4.96133189
C        1.41515068      -7.07521322      -3.90265357
C        2.28219967      -7.87873914      -3.19260489
C        1.74095315      -8.65695307      -2.16511308
C        0.36229157      -8.61326861      -1.88674285
C       -0.50108380      -7.78946372      -2.61394847
C        0.04688460      -7.01179055      -3.62088848
H       -2.67184543       0.26664757      -0.50510665
H       -4.09815442      -1.16246241      -1.93289074
H       -3.15032184      -3.09332596      -3.11096342
H        0.73496468      -2.19482513      -1.42988418
H       -1.80958879      -4.25683189      -4.68577315
H       -2.15418106      -5.26036731      -3.26850990
H       -1.59495372      -6.25616911      -6.21098798
H        2.65115335      -6.09463912      -5.34808230
H        3.34296522      -7.90786916      -3.41282419
H        2.39675821      -9.29993625      -1.58281072
H       -1.56585446      -7.76319204      -2.40840908
C       -0.16977341      -9.43460038      -0.83037124
C       -0.61537784     -10.12246574       0.05433998
Br      -1.33588250     -11.23468584       1.48484320
C       -0.88189810       0.88189810       0.88189810
C       -2.10040949       0.39379659       1.34742752
C       -2.90505759       1.19989092       2.15223988
C       -2.49146847       2.49194015       2.49123601
C       -1.26505687       2.98340777       2.02486593
C       -0.46087150       2.16816948       1.21447180
C       -0.76676054       4.35285712       2.36013591
O        0.33820026       4.68987731       1.94590542
C       -1.64388797       5.26531216       3.19776458
C       -1.06123143       6.65034322       3.47600018
O       -1.96760466       7.35338635       4.33190409
C        0.35217647       6.58692697       4.13420047
O        0.62029325       6.04335803       5.19532278
N        1.21506701       7.33597721       3.34417513
C        0.55387371       7.87010283       2.24648699
C        1.09874296       8.64416648       1.24372084
C        0.23859386       9.08569086       0.23401599
C       -1.12734605       8.74871861       0.26165523
C       -1.66149433       7.95934844       1.28365322
C       -0.79851601       7.51520373       2.27207469
H       -2.42978394      -0.60994312       1.09046369
H       -3.85642502       0.81937074       2.51771182
H       -3.14516856       3.08722495       3.12221771
H        0.49439757       2.53805013       0.84609207
H       -1.82715889       4.76670934       4.15832560
H       -2.61200529       5.37746492       2.69358806
H       -1.77646899       7.04713320       5.23850861
H        2.19693895       7.44040873       3.54809829
H        2.15169343       8.90038574       1.22903582
H        0.63558227       9.69562047      -0.57404945
H       -2.71637720       7.70826123       1.31281716
C       -1.99262636       9.22729445      -0.78517578
C       -2.71729862       9.62810172      -1.66189675
Br      -3.88903236      10.27617317      -3.07948040
C        0.88189810      -0.88189810       0.88189810
C        0.39508767      -2.10203608       1.34450985
C        1.20090257      -2.90633214       2.14995370
C        2.49168099      -2.49114197       2.49182167
C        2.98307594      -1.26463881       2.02561582
C        2.16706355      -0.45947816       1.21697108
C        4.35668702      -0.77158574       2.35148081
O        4.72463490       0.29441001       1.86735757
C        5.23675719      -1.60791224       3.26229528
C        6.61602346      -1.01799279       3.55355859
O        7.34227218      -1.95360218       4.35702075
C        7.41859222      -0.69561865       2.25474010
O        7.72743508      -1.50143508       1.38951740
N        7.79144987       0.64122792       2.31486338
C        7.32541364       1.24011457       3.47741704
C        7.48766991       2.55578528       3.85725973
C        6.93963063       2.94236375       5.08384612
C        6.25916338       2.00918495       5.88774147
C        6.10038721       0.68056640       5.48467519
C        6.63491164       0.31054290       4.26142569
H       -0.60655638      -2.43405080       1.08281010
H        0.82241932      -3.86026585       2.51082241
H        3.08880469      -3.14715884       3.11864769
H        2.53724245       0.49541514       0.84791733
H        5.37198573      -2.58973211       2.79047599
H        4.70655698      -1.76674444       4.20975685
H        7.71076917      -2.61256805       3.73877359
H        8.31006872       1.10127516       1.58277450
H        8.01348557       3.26907771       3.23332026
H        7.04635805       3.97332453       5.41295523
H        5.58624189      -0.04289587       6.10831782
C        5.71505591       2.43235885       7.15204797
C        5.25936591       2.78676698       8.21090466
Br       4.52255372       3.35981496       9.92298638
