129
Properties=species:S:1:pos:R:3 pbc="F F F"
C        0.00000000       0.00000000       0.00000000
C        0.88189810       0.88189810      -0.88189810
C        0.40391961       2.11272683      -1.32498715
C        1.20972126       2.91701882      -2.13044831
C        2.49167320       2.49114366      -2.49182778
C        2.97420328       1.25385716      -2.04527013
C        2.15823190       0.44877978      -1.23650110
C        4.33826387       0.74900396      -2.39248576
O        4.69941169      -0.32659915      -1.92476992
C        5.21748180       1.58568959      -3.30379333
C        6.58647657       0.98352063      -3.61757764
O        7.31425443       1.91999025      -4.41865043
C        7.39999517       0.63713766      -2.33181814
O        7.72789351       1.42939307      -1.46110097
N        7.75675355      -0.70308047      -2.41141225
C        7.27068204      -1.28322884      -3.57526291
C        7.41347652      -2.59620526      -3.97187310
C        6.84712548      -2.96240519      -5.19639270
C        6.16833831      -2.01237422      -5.98175580
Br       5.42813667      -2.54117721      -7.64108631
C        6.02943624      -0.68675816      -5.56181792
C        6.58204596      -0.33691908      -4.34066755
H       -0.59080291       2.45307309      -1.04803433
H        0.83815200       3.87927743      -2.47607814
H        3.08913633       3.14749427      -3.11798062
H        2.52157989      -0.51443800      -0.88260274
H        5.36934086       2.56042072      -2.82243225
H        4.67840922       1.76141774      -4.24323132
H        7.69730428       2.56757537      -3.79723115
H        8.27833616      -1.17737694      -1.69060885
H        7.93811483      -3.32255242      -3.36216572
H        6.93824772      -3.99066101      -5.53840204
H        5.51658702       0.04962149      -6.17124708
C       -0.88189810      -0.88189810      -0.88189810
C       -0.89909055      -0.68237575      -2.26016729
C       -1.70489771      -1.48782976      -3.06446092
C       -2.49193162      -2.49149241      -2.49122060
C       -2.47414790      -2.69422034      -1.10496232
C       -1.66257861      -1.87973847      -0.30119570
C       -3.28777058      -3.75577044      -0.43621256
O       -3.18162627      -3.89448610       0.77852990
C       -4.20616062      -4.61624215      -1.28456194
C       -5.01076533      -5.66246743      -0.51434208
O       -5.76233087      -6.43266960      -1.45789464
C       -4.10836014      -6.60355951       0.34296868
O       -3.21456381      -7.31830478      -0.08551897
N       -4.57013342      -6.54686982       1.65191792
C       -5.64867885      -5.68022839       1.76619113
C       -6.34170984      -5.36276547       2.91533095
C       -7.40872027      -4.46757932       2.79518659
C       -7.75063654      -3.92831770       1.54123434
Br      -9.21111934      -2.73169526       1.41476883
C       -7.03413992      -4.25795700       0.38760092
C       -5.96996713      -5.13499695       0.51916964
H       -0.28950848       0.09439566      -2.71519170
H       -1.71820129      -1.33398830      -4.14131799
H       -3.10360270      -3.09920679      -3.15180173
H       -1.63944988      -2.02739287       0.77709811
H       -3.58856697      -5.13344347      -2.03018339
H       -4.89753446      -3.95886006      -1.82666375
H       -5.14833226      -7.10517663      -1.80860191
H       -4.14266081      -7.05770919       2.40880193
H       -6.07321275      -5.78235487       3.87783949
H       -7.97509152      -4.19283107       3.68193384
H       -7.30350775      -3.85225876      -0.58168908
C       -0.88189810       0.88189810       0.88189810
C       -2.20170197       0.51160137       1.12833026
C       -3.00619997       1.31765236       1.93333608
C       -2.49138072       2.49196011       2.49130381
C       -1.16329124       2.86459628       2.24544304
C       -0.35958122       2.05027974       1.43365182
C       -0.55542593       4.10398691       2.82034074
O        0.62772759       4.33497231       2.59033775
C       -1.42298507       5.02056937       3.66341027
C       -0.72255313       6.27064179       4.19437991
O       -1.64631725       6.98304287       5.02353498
C        0.57078913       5.93810706       5.00163303
O        0.62578338       5.24062521       6.00354573
N        1.61593431       6.65197618       4.42904346
C        1.17815858       7.39784286       3.34303182
C        1.94234620       8.20480659       2.52668397
C        1.28591370       8.87609197       1.49093473
C       -0.10148864       8.72663158       1.30959967
Br      -0.95832913       9.66339890      -0.09368225
C       -0.85956448       7.90086644       2.14406508
C       -0.19777487       7.22915697       3.15886260
H       -2.61045167      -0.40033618       0.70018902
H       -4.03685651       1.02886138       2.12778969
H       -3.14896232       3.09091304       3.11473585
H        0.67403902       2.32842346       1.23536019
H       -1.79295965       4.44052445       4.51870973
H       -2.29343769       5.32228403       3.06733656
H       -1.61779372       6.54783520       5.89648188
H        2.56645601       6.59720930       4.76081477
H        3.01052128       8.31574916       2.67250024
H        1.85867906       9.51846954       0.82619827
H       -1.93099231       7.79350782       2.01295545
C        0.88189810      -0.88189810       0.88189810
C        0.61505020      -2.24521326       0.98137013
C        1.42058065      -3.04949232       1.78711543
C        2.49152903      -2.49119941       2.49191619
C        2.76194156      -1.12011396       2.39127504
C        1.94707812      -0.31617390       1.58026076
C        3.89678584      -0.46827572       3.11469202
O        4.09015872       0.73069789       2.93812164
C        4.76090350      -1.31376780       4.03229342
C        5.88505131      -0.56037110       4.74215243
O        6.64562763      -1.50439805       5.50286942
C        6.81905251       0.20025735       3.75015581
O        7.46361381      -0.30922107       2.84555268
N        6.85205350       1.53178040       4.14481223
C        6.05002201       1.74506140       5.25775549
C        5.82710600       2.94242359       5.90446194
C        4.98430561       2.92282609       7.01963349
C        4.40186300       1.71753908       7.45339598
Br       3.27876359       1.72709286       8.97637504
C        4.63546709       0.51388518       6.78291409
C        5.46088783       0.54597142       5.67087803
H       -0.21438797      -2.68866278       0.43602970
H        1.21412483      -4.11477960       1.86460315
H        3.09681402      -3.15144432       3.10635288
H        2.14691888       0.75038111       1.49320687
H        5.20712323      -2.11539642       3.42967417
H        4.11450969      -1.78543941       4.78310918
H        7.26663353      -1.92012529       4.87535199
H        7.37686070       2.23852921       3.65323658
H        6.27950776       3.86697856       5.56519893
H        4.78425234       3.84992372       7.55166014
H        4.19662745      -0.41811943       7.12270870
