161
Properties=species:S:1:pos:R:3 pbc="F F F"
C        0.00000000       0.00000000       0.00000000
C        4.96368291       4.64957870      -2.36215313
C        3.78044602       4.48699016      -3.30251732
N        3.32565214       3.11624370      -3.37508797
C        2.47425442       2.50523832      -2.44899308
C        1.84890760       3.06575577      -1.34896458
C        1.04182116       2.23980398      -0.55988729
C        0.88247386       0.88247386      -0.88247386
C        1.51795454       0.32604973      -1.99327122
C        2.31091438       1.15645058      -2.77406759
C        3.11129595       0.81838530      -4.01146174
O        4.00772511      -0.22157719      -3.66423585
C        2.19112748       0.42361142      -5.16987832
C        3.00576613       0.11826164      -6.41133552
O        3.91350055      -0.71323377      -6.37306269
C        2.67413366       0.77916805      -7.70249489
C        2.92973854       0.07508030      -8.88799133
C        2.63535415       0.64831011     -10.12639242
C        2.09372356       1.93139431     -10.18705291
C        1.85897134       2.63794014      -9.00810523
C        2.14888817       2.07319725      -7.76493867
C        3.79318634       2.19433947      -4.31759176
O        4.56583026       2.42261765      -5.23656242
H        5.29997978       5.69081890      -2.35094042
H        5.80394457       4.02077488      -2.67553467
H        4.69973634       4.36605337      -1.33815526
H        4.08278800       4.80354904      -4.30727304
H        2.94921428       5.13192872      -2.99882426
H        1.97412907       4.10992609      -1.08654457
H        0.54394780       2.65731596       0.31211141
H        1.41550564      -0.72744811      -2.23572160
H        4.47840278      -0.47369376      -4.48734981
H        1.43509946       1.19077562      -5.36097937
H        1.64444533      -0.49921324      -4.93374131
H        3.36124323      -0.92430996      -8.85027925
H        2.83449794       0.09616599     -11.04187015
H        1.87027242       2.37439289     -11.15422172
H        1.99248969       2.66293381      -6.86766051
C        1.31572661       3.96995596      -9.07305923
C        0.86075914       5.08551920      -9.12745821
Br       0.12511524       6.88929062      -9.21541677
C       -4.91144537      -2.35632098      -4.70764838
C       -4.52662331      -3.38582551      -3.65750469
N       -3.11365581      -3.35141929      -3.35190870
C       -2.50740370      -2.45269409      -2.46838803
C       -3.10191676      -1.48885884      -1.67285235
C       -2.27438549      -0.69749896      -0.86962799
C       -0.88247386      -0.88247386      -0.88247386
C       -0.29205804      -1.85640399      -1.68881345
C       -1.12325180      -2.64146905      -2.47671171
C       -0.75440640      -3.74832293      -3.43841365
O        0.14056427      -3.20109327      -4.38985478
C       -0.14736172      -4.94169873      -2.69555676
C        0.18796037      -6.05476667      -3.66855699
O        0.90621260      -5.83495790      -4.64458417
C       -0.30076453      -7.43751620      -3.41751587
C        0.48503817      -8.50674297      -3.87110537
C        0.07366520      -9.82393951      -3.65978236
C       -1.12936575     -10.07938560      -3.00341943
C       -1.91925117      -9.01483527      -2.57093027
C       -1.51625105      -7.69430685      -2.77646619
C       -2.15998477      -4.13525028      -4.00988251
O       -2.37976612      -4.99249570      -4.85274852
H       -5.97938325      -2.42679353      -4.93556231
H       -4.35126130      -2.51334746      -5.63564536
H       -4.70362535      -1.33858946      -4.36173016
H       -4.77326089      -4.38436202      -4.03598717
H       -5.10279792      -3.23926464      -2.73790469
H       -4.17439760      -1.33219716      -1.66400497
H       -2.71890510       0.06928473      -0.23953199
H        0.78514923      -1.99002587      -1.71890248
H        0.41966991      -3.94049644      -4.97123229
H       -0.80356690      -5.29047088      -1.89281667
H        0.80213531      -4.66058880      -2.22051991
H        1.42195906      -8.31625078      -4.39292081
H        0.68862469     -10.64852534      -4.01263343
H       -1.44672201     -11.10693374      -2.84523129
H       -2.17129800      -6.88762386      -2.46416215
C       -3.17006649      -9.28009006      -1.90858525
C       -4.21762432      -9.50224094      -1.35387130
Br      -5.91143674      -9.86144013      -0.45694575
C       -5.14850424       4.41994622       2.40696428
C       -3.88253653       4.43918885       3.24822813
N       -3.30293801       3.12218982       3.39185598
C       -2.47908337       2.50275848       2.44664397
C       -1.99829540       3.01224226       1.25309029
C       -1.18805373       2.18803470       0.46542402
C       -0.88247386       0.88247386       0.88247386
C       -1.37280519       0.37718440       2.08728589
C       -2.17009817       1.20622571       2.86510866
C       -2.83323004       0.91548730       4.19242565
O       -3.65876013      -0.22112592       4.01274956
C       -1.78985887       0.70217009       5.29258826
C       -2.46972744       0.44310270       6.62253315
O       -3.29979092      -0.45995520       6.73349375
C       -2.09382813       1.24139697       7.82057150
C       -2.18779887       0.62726549       9.07774580
C       -1.84537316       1.33077650      10.23390701
C       -1.41715362       2.65415094      10.14086622
C       -1.34356573       3.26960038       8.89185059
C       -1.68270322       2.57445455       7.72986632
C       -3.60774008       2.25284072       4.44453677
O       -4.31988020       2.49816449       5.40696565
H       -5.57607960       5.42502443       2.34063507
H       -5.90089370       3.75496229       2.84439813
H       -4.94499024       4.06880207       1.39015266
H       -4.12868310       4.81826724       4.24665975
H       -3.13975654       5.12031402       2.81989669
H       -2.23715821       4.01510018       0.91834134
H       -0.80239827       2.56546551      -0.47871142
H       -1.15734971      -0.63857589       2.40500530
H       -4.03616476      -0.43651010       4.89240416
H       -1.09214910       1.54258415       5.35212120
H       -1.18423658      -0.19020406       5.08494089
H       -2.53011715      -0.40344433       9.16053970
H       -1.91893388       0.84801757      11.20558262
H       -1.15571807       3.19840290      11.04476606
H       -1.65343643       3.09265539       6.77699219
C       -0.91775518       4.64206174       8.79892487
C       -0.56113885       5.79149813       8.72109958
Br       0.01547961       7.65003956       8.59526267
C        3.51872429      -2.86870001       5.58799044
C        4.15763303      -3.17029007       4.24203041
N        3.17200368      -3.42895121       3.21602892
C        2.48884204      -2.44387922       2.49576456
C        2.64520681      -1.06981272       2.54860842
C        1.83043123      -0.28343095       1.72765026
C        0.88247386      -0.88247386       0.88247386
C        0.73145181      -2.26898881       0.83683487
C        1.55037405      -3.04068376       1.65037474
C        1.59181839      -4.54413210       1.80519250
O        0.29547920      -4.96560640       2.18929817
C        2.05691374      -5.21692849       0.51077498
C        2.12350941      -6.72062077       0.69123311
O        1.13936730      -7.34556705       1.08839512
C        3.36306852      -7.46098084       0.33174724
C        3.23376485      -8.78141140      -0.12236608
C        4.36467146      -9.52016032      -0.47477511
C        5.63078720      -8.94709452      -0.36571094
C        5.75898334      -7.64091111       0.10512225
C        4.63436711      -6.89362540       0.45903157
C        2.68677552      -4.70545681       2.91288524
O        3.06809084      -5.76161222       3.39530727
H        4.29005933      -2.70497966       6.34670011
H        2.88452709      -3.69897009       5.91675695
H        2.89332695      -1.97141288       5.53920514
H        4.79075540      -4.05908692       4.34376777
H        4.80713337      -2.34750933       3.92532456
H        3.36720356      -0.59818627       3.20520991
H        1.93247164       0.79887443       1.75555514
H       -0.01416539      -2.73690924       0.20103527
H        0.31834445      -5.94570616       2.22800821
H        3.01160973      -4.80831554       0.16692918
H        1.33489732      -5.04225693      -0.29818085
H        2.24908093      -9.24016055      -0.20202896
H        4.25721626     -10.54311986      -0.82780205
H        6.50816289      -9.52835581      -0.63763166
H        4.76909336      -5.89429012       0.85970053
C        7.06866934      -7.05629891       0.23377354
C        8.16553137      -6.56668619       0.34151900
Br       9.93906450      -5.77502384       0.51573429
