153
Properties=species:S:1:pos:R:3 pbc="F F F"
C        0.00000000       0.00000000       0.00000000
C        4.96368291       4.64957870      -2.36215313
C        3.78044602       4.48699016      -3.30251732
N        3.32565214       3.11624370      -3.37508797
C        2.47425442       2.50523832      -2.44899308
C        1.84890760       3.06575577      -1.34896458
C        1.04182116       2.23980398      -0.55988729
C        0.88247386       0.88247386      -0.88247386
C        1.51795454       0.32604973      -1.99327122
C        2.31091438       1.15645058      -2.77406759
C        3.11129595       0.81838530      -4.01146174
O        4.00772511      -0.22157719      -3.66423585
C        2.19112748       0.42361142      -5.16987832
C        3.00576613       0.11826164      -6.41133552
O        3.91350055      -0.71323377      -6.37306269
C        2.67413366       0.77916805      -7.70249489
C        2.92973854       0.07508030      -8.88799133
C        2.63535415       0.64831011     -10.12639242
C        2.09372356       1.93139431     -10.18705291
C        1.85897134       2.63794014      -9.00810523
Br       1.14536783       4.38766932      -9.09342848
C        2.14888817       2.07319725      -7.76493867
C        3.79318634       2.19433947      -4.31759176
O        4.56583026       2.42261765      -5.23656242
H        5.29997978       5.69081890      -2.35094042
H        5.80394457       4.02077488      -2.67553467
H        4.69973634       4.36605337      -1.33815526
H        4.08278800       4.80354904      -4.30727304
H        2.94921428       5.13192872      -2.99882426
H        1.97412907       4.10992609      -1.08654457
H        0.54394780       2.65731596       0.31211141
H        1.41550564      -0.72744811      -2.23572160
H        4.47840278      -0.47369376      -4.48734981
H        1.43509946       1.19077562      -5.36097937
H        1.64444533      -0.49921324      -4.93374131
H        3.36124323      -0.92430996      -8.85027925
H        2.83449794       0.09616599     -11.04187015
H        1.87027242       2.37439289     -11.15422172
H        1.99248969       2.66293381      -6.86766051
C       -2.95772323      -3.40680430      -5.61088721
C       -3.89997959      -3.24026738      -4.42970654
N       -3.22623050      -3.42686415      -3.16388915
C       -2.47651027      -2.44781830      -2.50415726
C       -2.27904458      -1.12496052      -2.85962285
C       -1.47240845      -0.33564873      -2.03345526
C       -0.88247386      -0.88247386      -0.88247386
C       -1.08665657      -2.21787988      -0.53273902
C       -1.89508524      -2.99062049      -1.35572681
C       -2.27172542      -4.44868804      -1.22072953
O       -1.06851923      -5.19489716      -1.18696738
C       -3.12954114      -4.68117711       0.02610103
C       -3.52515164      -6.14085317       0.13064152
O       -2.66571580      -7.02287625       0.11526258
C       -4.95351726      -6.51545172       0.31317238
C       -5.24157445      -7.68404784       1.03281212
C       -6.56494980      -8.07996210       1.23485523
C       -7.60655302      -7.31611597       0.71049820
C       -7.31767527      -6.16535544      -0.02198600
Br      -8.73158592      -5.14272513      -0.75215457
C       -5.99789836      -5.76047515      -0.22865058
C       -3.13608073      -4.65979512      -2.50924172
O       -3.66263795      -5.70692128      -2.85545110
H       -3.50303778      -3.28674067      -6.55196065
H       -2.49420166      -4.39916194      -5.60689052
H       -2.15382410      -2.66399956      -5.58612131
H       -4.69885155      -3.98644331      -4.50831522
H       -4.37752523      -2.25499739      -4.44744463
H       -2.72209768      -0.69702214      -3.75147991
H       -1.29947080       0.70556796      -2.29524952
H       -0.61621527      -2.65197105       0.34440720
H       -1.32219858      -6.13101815      -1.03884210
H       -4.00350009      -4.02342371       0.04006935
H       -2.55816174      -4.45790178       0.93709012
H       -4.43368804      -8.29177813       1.43825365
H       -6.78143167      -8.98641061       1.79530822
H       -8.63494666      -7.63135685       0.86741648
H       -5.80383726      -4.88281069      -0.83643605
C       -5.54838305       2.76709962       3.65993208
C       -4.48335441       3.78933143       3.29726767
N       -3.14672208       3.25116617       3.41909556
C       -2.50645076       2.47129135       2.45074372
C       -2.95645728       2.11602161       1.19114905
C       -2.12892934       1.31278713       0.39979597
C       -0.88247386       0.88247386       0.88247386
C       -0.43769203       1.24511250       2.15447096
C       -1.26370352       2.04879948       2.92892955
C       -1.03768885       2.57534114       4.32811300
O       -0.82182078       1.45777020       5.17079278
C        0.13581440       3.55830534       4.36212628
C        0.32993925       4.10112197       5.76418056
O        0.47577515       3.33317667       6.71592796
C        0.40559294       5.56956489       5.99182464
C        1.19424593       6.03183837       7.05521774
C        1.30129454       7.39998285       7.31136837
C        0.61315891       8.31234402       6.51298568
C       -0.18657445       7.84985127       5.46859098
Br      -1.13764678       9.08808110       4.40073775
C       -0.29934443       6.48399790       5.20368175
C       -2.38018874       3.33899029       4.58593854
O       -2.68201635       3.93188712       5.61110686
H       -6.54475942       3.21303897       3.58394071
H       -5.41195267       2.40405236       4.68424909
H       -5.51150824       1.90036511       2.99207162
H       -4.57282332       4.64665740       3.97412936
H       -4.63414071       4.16575581       2.28007073
H       -3.92130392       2.43510182       0.81419399
H       -2.46359515       1.01738110      -0.59182389
H        0.51576652       0.89817809       2.54136756
H       -0.61693896       1.81301111       6.06210876
H        0.00696356       4.36224803       3.63156997
H        1.07459322       3.05061347       4.10295315
H        1.72807610       5.32556316       7.68972547
H        1.91593369       7.75185793       8.13660983
H        0.69692638       9.37625371       6.71955970
H       -0.96053976       6.15296169       4.40958256
C        2.40862480      -5.15304969       4.41374025
C        3.24697338      -3.88523086       4.43774926
N        3.39226400      -3.30232766       3.12239215
C        2.44659063      -2.47921031       2.50268488
C        1.25080266      -2.00227614       3.01054915
C        0.46316784      -1.19195182       2.18639279
C        0.88247386      -0.88247386       0.88247386
C        2.08953226      -1.36893540       0.37880782
C        2.86728338      -2.16634429       1.20780488
C        4.19675264      -2.82581459       0.91857575
O        4.02151598      -3.64917204      -0.22030426
C        5.29502842      -1.77947932       0.71010948
C        6.62709191      -2.45575203       0.45251935
O        6.74197291      -3.28351503      -0.45215848
C        7.82246861      -2.07895534       1.25437264
C        9.08123722      -2.16869346       0.64287950
C       10.23502702      -1.82525014       1.34977951
C       10.13802605      -1.40024056       2.67390418
C        8.88745926      -1.33086974       3.28668770
Br       8.76005188      -0.77588945       5.09052430
C        7.72782008      -1.67105695       2.58814705
C        4.44759446      -3.60278008       2.25474303
O        5.41107702      -4.31329721       2.50063610
H        2.34099301      -5.58304930       5.41769679
H        2.84926342      -5.90294052       3.74805019
H        1.39215097      -4.95103929       4.06075471
H        4.24510074      -4.12997842       4.81853093
H        2.81542242      -3.14496545       5.11957938
H        0.91433008      -2.24416575       4.01210391
H       -0.48268926      -0.80928690       2.56255472
H        2.40905757      -1.15046226      -0.63574071
H        4.90250768      -4.02409894      -0.43454778
H        5.35108145      -1.08354215       1.55223086
H        5.08802705      -1.17230812      -0.18136177
H        9.16713538      -2.50848828      -0.38841113
H       11.20795527      -1.89552111       0.86905769
H       11.04009913      -1.13799635       3.22079155
H        6.77371344      -1.64511748       3.10425309
