174
Properties=species:S:1:pos:R:3 pbc="F F F"
C        5.87358693       5.55948273      -3.27205715
C        4.69035005       5.39689419      -4.21242134
N        4.23555616       4.02614772      -4.28499200
C        3.38415844       3.41514235      -3.35889711
C        2.75881162       3.97565980      -2.25886860
C        1.95172519       3.14970801      -1.46979132
C        1.79237788       1.79237788      -1.79237788
C        2.42785856       1.23595375      -2.90317524
C        3.22081841       2.06635461      -3.68397161
C        4.02119997       1.72828932      -4.92136576
O        4.91762914       0.68832684      -4.57413987
C        3.10103151       1.33351544      -6.07978234
C        3.91567015       1.02816567      -7.32123954
O        4.82340458       0.19667025      -7.28296671
C        3.58403768       1.68907207      -8.61239892
C        3.83964257       0.98498433      -9.79789535
C        3.54525817       1.55821413     -11.03629645
C        3.00362759       2.84129834     -11.09695694
C        2.76887536       3.54784416      -9.91800925
Br       2.05527186       5.29757334     -10.00333250
C        3.05879220       2.98310127      -8.67484269
C        4.70309036       3.10424350      -5.22749578
O        5.47573429       3.33252167      -6.14646644
H        6.20988381       6.60072292      -3.26084444
H        6.71384860       4.93067890      -3.58543870
H        5.60964037       5.27595739      -2.24805929
H        4.99269202       5.71345307      -5.21717707
H        3.85911830       6.04183274      -3.90872828
H        2.88403310       5.01983011      -1.99644859
H        1.45385182       3.56721999      -0.59779262
H        2.32540966       0.18245591      -3.14562562
H        5.38830680       0.43621026      -5.39725383
H        2.34500348       2.10067964      -6.27088340
H        2.55434936       0.41069078      -5.84364534
H        4.27114725      -0.01440593      -9.76018328
H        3.74440196       1.00607001     -11.95177417
H        2.78017645       3.28429692     -12.06412574
H        2.90239372       3.57283783      -7.77756453
C       -3.82988915      -4.36296036      -6.51227730
C       -4.78924707      -4.15963121      -5.35078730
N       -4.14071355      -4.33561793      -4.07036440
C       -3.38543759      -3.35821431      -3.41454599
C       -3.15879485      -2.04536199      -3.78918318
C       -2.35279722      -1.25570352      -2.96272378
C       -1.79237788      -1.79237788      -1.79237788
C       -2.02585655      -3.11775946      -1.42337154
C       -2.83341109      -3.89076534      -2.24696819
C       -3.23775010      -5.33956261      -2.09354234
O       -2.04853210      -6.10563205      -2.02593170
C       -4.12079725      -5.53544270      -0.85808934
C       -4.54360567      -6.98605452      -0.73541516
O       -3.69958483      -7.88284923      -0.72060748
C       -5.98122785      -7.33280539      -0.57147543
C       -6.30199547      -8.48351868       0.16299190
C       -7.63536689      -8.85304178       0.34863992
C       -8.65429217      -8.08069485      -0.20689583
C       -8.33279536      -6.94805047      -0.95388295
Br      -9.71585522      -5.91419807      -1.72612442
C       -7.00278513      -6.56958301      -1.14436803
C       -4.08339590      -5.55828181      -3.39315193
O       -4.62215351      -6.60209839      -3.73047050
H       -4.35677008      -4.25001599      -7.46466509
H       -3.38392559      -5.36291467      -6.48312594
H       -3.01367022      -3.63375936      -6.48622746
H       -5.59957409      -4.89323015      -5.43051792
H       -5.24911829      -3.16676171      -5.39379933
H       -3.57890798      -1.62553209      -4.69587174
H       -2.15720883      -0.22234845      -3.23930715
H       -1.57821825      -3.54446811      -0.53080484
H       -2.32104728      -7.03452295      -1.86620067
H       -4.98323366      -4.86262539      -0.87070748
H       -3.56133954      -5.30612515       0.05877921
H       -5.51194394      -9.09785976       0.59287911
H       -7.87726207      -9.74569928       0.92071521
H       -9.69058468      -8.37542647      -0.06258796
H       -6.78299391      -5.70614319      -1.76365898
C       -6.37174436       4.79576671       3.53761574
C       -5.01310164       5.19961868       4.08694526
N       -4.16092428       4.05671613       4.32905547
C       -3.39929311       3.40518938       3.35371540
C       -3.24098297       3.73368168       2.01867537
C       -2.42408214       2.91458519       1.23255718
C       -1.79237788       1.79237788       1.79237788
C       -1.95884944       1.46862134       3.13951678
C       -2.76591111       2.29255082       3.91268270
C       -3.12219206       2.17157849       5.37708450
O       -3.71631215       0.89968260       5.56410109
C       -1.88703579       2.36654474       6.26074877
C       -2.26548311       2.27382753       7.72576471
O       -2.86269380       1.28575860       8.15458914
C       -1.86413314       3.35174263       8.66963290
C       -1.61733714       3.00055006      10.00463504
C       -1.23596044       3.97286860      10.93093971
C       -1.10909164       5.30215718      10.53063403
C       -1.37443630       5.65285124       9.20744124
Br      -1.22398158       7.46067254       8.67152358
C       -1.75533293       4.68796376       8.27343947
C       -4.09976175       3.38210009       5.55296779
O       -4.67433464       3.69523267       6.58515509
H       -7.00057063       5.67931099       3.39156955
H       -6.88765622       4.11706248       4.22524750
H       -6.27517895       4.28373605       2.57474204
H       -5.15958251       5.72764349       5.03609615
H       -4.50821920       5.89412725       3.40733288
H       -3.73263518       4.59206001       1.57561661
H       -2.28847940       3.15066035       0.17972468
H       -1.49000341       0.59037617       3.57311162
H       -3.88793599       0.80808334       6.52575158
H       -1.37591030       3.30672693       6.03392929
H       -1.15573637       1.56572060       6.08722850
H       -1.72289283       1.96586079      10.32817097
H       -1.04445417       3.69346858      11.96432339
H       -0.81580262       6.05571350      11.25708299
H       -1.99362228       4.99791366       7.26126013
C        4.09076771      -4.07297138       6.54138772
C        4.92212875      -4.10829701       5.26923982
N        4.11181438      -4.34058179       4.09429971
C        3.39175405      -3.35548485       3.41095899
C        3.35090607      -1.99287592       3.64955803
C        2.54076368      -1.20517149       2.82528934
C        1.79237788      -1.79237788       1.79237788
C        1.83931811      -3.16757133       1.56009812
C        2.65241767      -3.93932012       2.37940683
C        2.88051593      -5.43380699       2.35653213
O        1.61744854      -6.05671396       2.50593334
C        3.58563106      -5.86208070       1.06661753
C        3.83540968      -7.35729578       1.07236990
O        2.90561370      -8.14451565       1.25291220
C        5.19885250      -7.88695904       0.79969713
C        5.30720952      -9.13860514       0.17670758
C        6.56274845      -9.68071823      -0.10369794
C        7.71603224      -8.97995490       0.24589572
C        7.60652760      -7.74474095       0.88346023
Br       9.17257855      -6.80595157       1.37764758
C        6.35582378      -7.19368326       1.16722912
C        3.84603949      -5.61251756       3.57627259
O        4.30764680      -6.67121841       3.97585720
H        4.73552367      -3.92318642       7.41274108
H        3.54140614      -5.01062767       6.67793239
H        3.35879053      -3.25923172       6.51563479
H        5.65417141      -4.92001388       5.34913687
H        5.48611289      -3.17781676       5.14574968
H        3.91724656      -1.53228748       4.45077777
H        2.48946973      -0.13255133       2.99684337
H        1.24674394      -3.63020573       0.77654153
H        1.76954418      -7.02294781       2.42927891
H        4.50969984      -5.29841458       0.90845211
H        2.94905141      -5.66632927       0.19330479
H        4.41144676      -9.69715508      -0.09167725
H        6.63968136     -10.65109801      -0.58853323
H        8.69103474      -9.40873004       0.02883433
H        6.30321290      -6.24977953       1.69980365
C       -0.00445707       0.01189536      -1.78238275
H       -0.66409135       0.67374010      -2.43557963
H        0.65740317      -0.63156657      -2.45157240
C       -0.90989263      -0.90692880      -0.91072765
C        0.90977584       0.90977584      -0.90977584
C       -0.00465871       1.77757030       0.00794375
H       -0.66225468       2.44313916      -0.64384735
H        0.64322798       2.43503045       0.67728295
C       -1.78241447       0.00034974      -0.00472694
H       -2.45427497      -0.65498947       0.64260836
H       -2.43311707       0.67328779      -0.65473579
C       -0.91132561       0.90220522       0.91563759
C       -0.01476271      -0.02253852       1.78660255
H       -0.67934791      -0.69751639       2.42135241
H        0.63392994       0.61504881       2.47327442
C        0.01484550      -1.77751727      -0.01636693
H        0.67870853      -2.42144646      -0.68295456
H       -0.62264859      -2.45592969       0.64226336
C        1.78714474       0.01002794       0.00389507
H        2.44202412       0.67113390       0.66197326
H        2.45385902      -0.65136977      -0.64189061
C        0.91606151      -0.90478549       0.90901405
