186
Properties=species:S:1:pos:R:3 pbc="F F F"
C        1.79134829       1.79134829      -1.79134829
C        2.81419166       1.21867262      -2.54037417
C        3.61832965       2.02845747      -3.34854386
C        3.40447566       3.41818330      -3.41418313
C        2.37207743       3.97794464      -2.65011603
C        1.56743695       3.16475222      -1.84204569
N        4.24374226       4.21065324      -4.26066213
N        5.23588418       3.60456976      -4.96847863
C        5.82853189       4.57675460      -5.66467212
C        6.96771583       4.20748029      -6.54411837
C        5.23532215       5.84685171      -5.42834300
C        4.21869259       5.58214050      -4.51037537
N        3.37331240       6.49032772      -3.97689594
C        3.54126676       7.76550167      -4.37446528
C        4.51571647       8.13361657      -5.29691805
C        5.40186141       7.18357252      -5.85431473
C        6.41820758       7.69543528      -6.84254323
F        5.82860451       8.27809976      -7.92365534
F        7.21692224       8.65588138      -6.29782140
F        7.26003448       6.75772280      -7.34270407
C        2.60753388       8.74220185      -3.76737956
C        2.97148357      10.08229593      -3.53008781
C        2.07659302      10.99220481      -2.95577065
C        0.79659232      10.58039866      -2.59617737
C        0.41891784       9.25925370      -2.81085914
C        1.30826901       8.35081381      -3.38869924
H        2.99679938       0.14784331      -2.50670055
H        4.41089793       1.55468240      -3.92598388
H        2.15907603       5.04152093      -2.65040224
H        0.77037033       3.61751826      -1.25746762
H        7.87429859       4.74048047      -6.24197556
H        6.73868849       4.44214613      -7.58795265
H        7.18596679       3.13510918      -6.48960977
H        4.59669525       9.17154550      -5.61640833
H        3.97077916      10.43861469      -3.77120915
H        2.38408239      12.02092533      -2.78255473
H        0.10758308      11.29048890      -2.14673501
H        0.98883772       7.32256720      -3.55083253
C       -0.90029755       8.82339248      -2.43231489
C       -2.00514044       8.45835871      -2.11528408
Br      -3.79157795       7.86812997      -1.60267208
C       -1.79134829      -1.79134829      -1.79134829
C       -3.15516520      -1.88461960      -1.53345365
C       -3.96021858      -2.69102883      -2.34408357
C       -3.40664273      -3.41001546      -3.42018390
C       -2.03058676      -3.30686514      -3.66268620
C       -1.22641422      -2.49789486      -2.84992578
N       -4.26647271      -4.21694731      -4.23163761
N       -5.59320715      -4.28128112      -3.93444430
C       -6.13136108      -5.08227613      -4.85632140
C       -7.59231626      -5.34289735      -4.78410088
C       -5.16566162      -5.56231296      -5.78254228
C       -3.96729096      -4.99386675      -5.35005075
N       -2.75475535      -5.16649442      -5.91928628
C       -2.71352751      -5.96635946      -7.00134675
C       -3.85362906      -6.57023340      -7.52238864
C       -5.12273731      -6.39112150      -6.92588985
C       -6.28740361      -7.09410322      -7.57467926
F       -6.46555835      -6.69867644      -8.86612481
F       -6.10141960      -8.44313726      -7.62606816
F       -7.48439968      -6.91120871      -6.96485296
C       -1.37068001      -6.14607608      -7.60035921
C       -0.99332387      -7.33445120      -8.25609224
C        0.27975362      -7.48745681      -8.81686530
C        1.21076250      -6.45668832      -8.72724253
C        0.86415609      -5.27844529      -8.07474148
C       -0.40733040      -5.12136918      -7.51908247
H       -3.60482988      -1.33734653      -0.70916682
H       -5.02493578      -2.74507664      -2.12155179
H       -1.54075681      -3.83954335      -4.47069904
H       -0.16086141      -2.42966489      -3.05482991
H       -7.78560377      -6.41255194      -4.65859890
H       -8.09105274      -4.98710851      -5.69062601
H       -8.05085759      -4.82626637      -3.93356178
H       -3.78157359      -7.18403657      -8.41903892
H       -1.68113034      -8.17462317      -8.32484949
H        0.54525697      -8.41621080      -9.31660861
H        2.19914445      -6.58299452      -9.16095693
H       -0.65735743      -4.18832984      -7.01655018
C        1.82538084      -4.21141948      -7.96937118
C        2.63040657      -3.31778537      -7.88112355
Br       3.93206509      -1.87285459      -7.73843461
C       -1.79134829       1.79134829       1.79134829
C       -3.06800274       2.14143598       1.36379973
C       -3.87377770       2.94703270       2.17452058
C       -3.40838363       3.40804061       3.42041784
C       -2.11864434       3.04846009       3.83303366
C       -1.31373995       2.24080457       3.01969034
N       -4.26771321       4.22298479       4.22435963
N       -5.50578265       4.54425440       3.75889551
C       -6.06985147       5.28536796       4.71473917
C       -7.44828411       5.78876505       4.48226532
C       -5.21094858       5.46665318       5.83291510
C       -4.04955718       4.77622103       5.48543025
N       -2.93429639       4.66693772       6.23930194
C       -2.95889647       5.28983016       7.43250709
C       -4.07289622       5.99293930       7.88041557
C       -5.23985618       6.10895324       7.09093924
C       -6.38484801       6.89497753       7.67636055
F       -6.82525735       6.35712452       8.84797774
F       -6.02274979       8.17481191       7.97306331
F       -7.47973681       6.99737773       6.88334680
C       -1.72025118       5.16200328       8.23486083
C       -1.29252872       6.16905536       9.12228322
C       -0.11950869       6.03189987       9.87315993
C        0.66002148       4.88567107       9.74751876
C        0.26321858       3.88303561       8.86921365
C       -0.90965343       4.01523996       8.12288867
H       -3.44903483       1.79588056       0.40642785
H       -4.86961152       3.20498160       1.81697110
H       -1.69777169       3.37547665       4.77775086
H       -0.31619469       1.97133719       3.35782433
H       -7.46677504       6.88251776       4.50746182
H       -8.13330482       5.39590607       5.23957639
H       -7.82940429       5.47825994       3.50302150
H       -4.06313796       6.45504934       8.86646178
H       -1.85782906       7.09232691       9.23044703
H        0.18812783       6.82553380      10.55015648
H        1.57204435       4.78675973      10.33009162
H       -1.20232041       3.21528218       7.44463486
C        1.06975416       2.69866541       8.72649857
C        1.74522771       1.70675537       8.60697469
Br       2.83741131       0.10292073       8.41371468
C        1.79134829      -1.79134829       1.79134829
C        2.70688199      -1.20627648       2.66007998
C        3.51117313      -2.01635007       3.46780778
C        3.40485328      -3.41887788       3.41311092
C        2.47990212      -3.99061669       2.52961928
C        1.67483168      -3.17720094       1.72220224
N        4.23984440      -4.21220307       4.26301015
N        5.12523790      -3.59289937       5.09079530
C        5.74056951      -4.57110420       5.75828490
C        6.77836296      -4.19004129       6.75091023
C        5.26993398      -5.85864492       5.38193796
C        4.30612435      -5.59734654       4.40773756
N        3.57787261      -6.52003414       3.74262930
C        3.81736471      -7.80697661       4.05689240
C        4.74718152      -8.17454327       5.02452630
C        5.51083861      -7.20914357       5.71976648
C        6.48892847      -7.72176113       6.74549649
F        5.86941604      -8.43103343       7.72991013
F        7.39999532      -8.57382692       6.19680278
F        7.21375304      -6.76732292       7.37938538
C        3.01221153      -8.79842248       3.30648129
C        3.49870579     -10.08463225       3.00052926
C        2.72439825     -11.00942999       2.29074025
C        1.44570161     -10.66604909       1.86141765
C        0.94875262      -9.39788351       2.14239455
C        1.71741050      -8.47523764       2.85513392
H        2.80527407      -0.12561515       2.72045401
H        4.21840848      -1.53291202       4.14024371
H        2.35318819      -5.06364787       2.43416315
H        0.96197319      -3.63951719       1.04386584
H        7.74452640      -4.62861880       6.48360941
H        6.49221358      -4.52372153       7.75285216
H        6.91360472      -3.10354367       6.79353735
H        4.88702451      -9.22584655       5.27177802
H        4.50269911     -10.38415684       3.29374704
H        3.12512977     -11.99542136       2.06701131
H        0.85083155     -11.38696612       1.30700933
H        1.30566620      -7.48971498       3.06685627
C       -0.36944619      -9.03197754       1.69287848
C       -1.47343770      -8.72553129       1.31640877
Br      -3.25849860      -8.23003362       0.70768908
C       -0.00445707       0.01189536      -1.78238275
H       -0.66409135       0.67374010      -2.43557963
H        0.65740317      -0.63156657      -2.45157240
C       -0.90989263      -0.90692880      -0.91072765
C        0.90977584       0.90977584      -0.90977584
C       -0.00465871       1.77757030       0.00794375
H       -0.66225468       2.44313916      -0.64384735
H        0.64322798       2.43503045       0.67728295
C       -1.78241447       0.00034974      -0.00472694
H       -2.45427497      -0.65498947       0.64260836
H       -2.43311707       0.67328779      -0.65473579
C       -0.91132561       0.90220522       0.91563759
C       -0.01476271      -0.02253852       1.78660255
H       -0.67934791      -0.69751639       2.42135241
H        0.63392994       0.61504881       2.47327442
C        0.01484550      -1.77751727      -0.01636693
H        0.67870853      -2.42144646      -0.68295456
H       -0.62264859      -2.45592969       0.64226336
C        1.78714474       0.01002794       0.00389507
H        2.44202412       0.67113390       0.66197326
H        2.45385902      -0.65136977      -0.64189061
C        0.91606151      -0.90478549       0.90901405
