194
Properties=species:S:1:pos:R:3 pbc="F F F"
C        1.79166056       1.79166056      -1.79166056
C        1.87461166       1.53530758      -3.16125719
C        2.68214031       2.33882003      -3.97101217
C        3.40727161       3.39463048      -3.40303262
C        3.30335338       3.65635349      -2.03050555
C        2.49936315       2.84963024      -1.22251948
C        4.27995250       4.27226759      -4.22944838
O        4.31176487       5.46704617      -3.96914970
N        5.02752334       3.60557122      -5.18450154
C        5.94862870       4.17730248      -6.08941094
C        6.06511509       5.54926202      -6.30644428
C        7.01965226       6.06153333      -7.19759413
C        7.88559317       5.18702445      -7.87818787
N        8.88937256       5.55127846      -8.75647557
C        9.50846252       4.48383966      -9.18004456
N       10.58184691       4.37325246     -10.02014081
C       11.13730312       5.46005863     -10.65428657
O       10.73723497       6.61619430     -10.64383203
C       12.33401789       5.14091478     -11.48140482
C       12.49644575       5.80455343     -12.70435505
C       13.60192535       5.52713108     -13.51170391
C       14.54991582       4.59690055     -13.08772912
C       14.40781184       3.94662806     -11.86129813
C       13.30003043       4.21957427     -11.05343119
S        8.93666897       2.98575380      -8.59966687
C        7.74991209       3.81483586      -7.66259304
C        6.77915261       3.28903544      -6.79064304
H        1.30688335       0.72178654      -3.60628877
H        2.71225778       2.15178571      -5.04146836
H        3.85140825       4.48789740      -1.59048369
H        2.43031473       3.05750066      -0.15767920
H        5.00932271       2.59448398      -5.15114358
H        5.42074288       6.26292380      -5.79975463
H        7.10564885       7.13249042      -7.35653346
H       10.91347268       3.43920250     -10.20155013
H       11.76017069       6.53830025     -13.02907318
H       13.71479070       6.04448780     -14.46125311
H       15.15921266       3.23732438     -11.52262796
H       13.22324936       3.73412580     -10.08430067
H        6.70996322       2.21580901      -6.64694647
C       15.69078724       4.31069526     -13.91845105
C       16.64626706       4.07099833     -14.61418067
Br      18.19119710       3.68342866     -15.73911662
C       -1.79166056      -1.79166056      -1.79166056
C       -1.96935025      -1.46480821      -3.13701797
C       -2.77723369      -2.26820996      -3.94652885
C       -3.40772533      -3.39490805      -3.40230134
C       -3.20866588      -3.72603977      -2.05550677
C       -2.40459220      -2.91954794      -1.24737274
C       -4.27740285      -4.27510402      -4.22916161
O       -4.22726191      -5.48231309      -4.03838575
N       -5.11592559      -3.60151506      -5.10015545
C       -6.05552279      -4.17529805      -5.98452128
C       -6.10805542      -5.53752764      -6.27523833
C       -7.08347281      -6.05478324      -7.14052368
C       -8.03536265      -5.19632109      -7.71912176
N       -9.06734071      -5.56966563      -8.56012026
C       -9.76877850      -4.51866233      -8.88490592
N      -10.89431119      -4.42495823      -9.65597076
C      -11.42483076      -5.50563508     -10.32118247
O      -10.96111132      -6.63496086     -10.40118912
C      -12.68413125      -5.21205411     -11.06015213
C      -12.88118270      -5.81501250     -12.30915903
C      -14.04606063      -5.55873742     -13.03596230
C      -15.01771309      -4.71105599     -12.50577640
C      -14.83996943      -4.12281167     -11.25295693
C      -13.67301588      -4.37451849     -10.52550153
S       -9.24803759      -3.02410388      -8.24994817
C       -7.96379607      -3.83265153      -7.43089339
C       -6.97409474      -3.29988631      -6.58485004
H       -1.47500900      -0.59572477      -3.56422488
H       -2.88076991      -2.02398388      -5.00075806
H       -3.68269062      -4.61164807      -1.63545065
H       -2.26142452      -3.18193381      -0.20213626
H       -5.15209681      -2.59454037      -5.00831309
H       -5.39621006      -6.23905479      -5.84815647
H       -7.11894538      -7.11843747      -7.35728989
H      -11.28753040      -3.50343649      -9.76325842
H      -12.12563362      -6.48486325     -12.71704724
H      -14.18573700      -6.02819147     -14.00660314
H      -15.60841140      -3.47899189     -10.83176171
H      -13.56637453      -3.94008486      -9.53521644
H       -6.95639895      -2.23411263      -6.38220711
C      -16.21973312      -4.44681239     -13.25338805
C      -17.22642489      -4.22550837     -13.87951280
Br     -18.85416035      -3.86767848     -14.89190356
C       -1.79166056       1.79166056       1.79166056
C       -2.22157733       3.03211316       1.31748594
C       -3.02689718       3.84269027       2.12238505
C       -3.39485690       3.40765350       3.40242431
C       -2.97430932       2.15297898       3.86292412
C       -2.16613936       1.34654865       3.05882486
C       -4.24912684       4.24092200       4.29161964
O       -5.09178037       3.67882028       4.97736009
N       -3.93888215       5.58970448       4.28900948
C       -4.56590816       6.60407309       5.04536087
C       -5.75973451       6.42010993       5.74097695
C       -6.32117286       7.45757501       6.50003185
C       -5.67128530       8.70237499       6.57714521
N       -6.09020333       9.79835383       7.30856944
C       -5.23269634      10.77152669       7.16812372
N       -5.22284306      12.01481463       7.73758250
C       -6.25180958      12.47271519       8.52712354
O       -7.31584569      11.91730669       8.76410893
C       -6.02719392      13.82886658       9.10027699
C       -7.11532186      14.70726216       9.18277021
C       -6.94310250      15.99018311       9.70747473
C       -5.68605479      16.38694516      10.16154554
C       -4.60098884      15.51149387      10.10325532
C       -4.76999151      14.22839537       9.57464902
S       -3.89789981      10.47514619       6.14904364
C       -4.48382284       8.87826350       5.86525465
C       -3.92557319       7.85277330       5.08048460
H       -1.94439331       3.36900131       0.32156404
H       -3.38441721       4.79128402       1.72981061
H       -3.27469003       1.80514387       4.84995544
H       -1.84028710       0.37729327       3.42791422
H       -3.09993079       5.86183798       3.79318150
H       -6.29475867       5.47443738       5.71422526
H       -7.24949359       7.30299304       7.04218610
H       -4.44464607      12.60931086       7.50026838
H       -8.09864125      14.39193036       8.83697251
H       -7.79371452      16.66513576       9.76168133
H       -3.62630495      15.81528936      10.47757069
H       -3.92500568      13.54519820       9.57147196
H       -2.99767199       8.02869768       4.54634902
C       -5.50720102      17.70888176      10.70385077
C       -5.35741099      18.81600366      11.15803141
Br      -5.11521319      20.60612613      11.89240308
C        1.79166056      -1.79166056       1.79166056
C        1.97031209      -3.13672733       1.46413702
C        2.77485559      -3.94724746       2.26986946
C        3.39431417      -3.40635386       3.40426668
C        3.22460677      -2.05068982       3.71491583
C        2.41683995      -1.24367177       2.91100116
C        4.25689746      -4.23535783       4.28941318
O        5.26476760      -3.72487680       4.75831635
N        3.77070759      -5.50664757       4.54024095
C        4.36566943      -6.49515381       5.35451888
C        5.66756069      -6.40834511       5.84491559
C        6.19565803      -7.40879968       6.67432202
C        5.40372925      -8.51433728       7.03273897
N        5.78015379      -9.55342808       7.86354472
C        4.78769629     -10.39006765       7.99458281
N        4.69933615     -11.52794134       8.74796269
C        5.76793111     -12.03055977       9.45315744
O        6.92113068     -11.62197288       9.45415775
C        5.45478755     -13.24468373      10.25686622
C        6.41359392     -14.26350684      10.32825347
C        6.15401161     -15.42074730      11.06600143
C        4.94175940     -15.55048421      11.74230188
C        3.98934538     -14.53175125      11.69464140
C        4.24519293     -13.37436001      10.95348296
S        3.36208154     -10.02854073       7.13146737
C        4.10660369      -8.59644298       6.52429432
C        3.57597632      -7.61167867       5.67117610
H        1.49746931      -3.55743793       0.58005142
H        2.93490850      -4.98439870       1.98620465
H        3.72022931      -1.62410737       4.58545266
H        2.28687904      -0.19444452       3.16417102
H        2.83541547      -5.70835777       4.21117703
H        6.31458937      -5.57064460       5.59818734
H        7.20976320      -7.32984695       7.05506258
H        3.82045303     -12.01962734       8.71414494
H        7.36401660     -14.15589193       9.80763559
H        6.90350055     -16.20711764      11.10991342
H        3.05340100     -14.62558007      12.24018393
H        3.51032271     -12.57391038      10.95744274
H        2.56065487      -7.71049392       5.30156991
C        4.67317377     -16.74247706      12.50428272
C        4.44823331     -17.74077108      13.14244167
Br       4.08452361     -19.35492807      14.17429072
C       -0.00445707       0.01189536      -1.78238275
H       -0.66409135       0.67374010      -2.43557963
H        0.65740317      -0.63156657      -2.45157240
C       -0.90989263      -0.90692880      -0.91072765
C        0.90977584       0.90977584      -0.90977584
C       -0.00465871       1.77757030       0.00794375
H       -0.66225468       2.44313916      -0.64384735
H        0.64322798       2.43503045       0.67728295
C       -1.78241447       0.00034974      -0.00472694
H       -2.45427497      -0.65498947       0.64260836
H       -2.43311707       0.67328779      -0.65473579
C       -0.91132561       0.90220522       0.91563759
C       -0.01476271      -0.02253852       1.78660255
H       -0.67934791      -0.69751639       2.42135241
H        0.63392994       0.61504881       2.47327442
C        0.01484550      -1.77751727      -0.01636693
H        0.67870853      -2.42144646      -0.68295456
H       -0.62264859      -2.45592969       0.64226336
C        1.78714474       0.01002794       0.00389507
H        2.44202412       0.67113390       0.66197326
H        2.45385902      -0.65136977      -0.64189061
C        0.91606151      -0.90478549       0.90901405
