186
Properties=species:S:1:pos:R:3 pbc="F F F"
C        1.79166056       1.79166056      -1.79166056
C        1.87461166       1.53530758      -3.16125719
C        2.68214031       2.33882003      -3.97101217
C        3.40727161       3.39463048      -3.40303262
C        3.30335338       3.65635349      -2.03050555
C        2.49936315       2.84963024      -1.22251948
C        4.27995250       4.27226759      -4.22944838
O        4.31176487       5.46704617      -3.96914970
N        5.02752334       3.60557122      -5.18450154
C        5.94862870       4.17730248      -6.08941094
C        6.06511509       5.54926202      -6.30644428
C        7.01965226       6.06153333      -7.19759413
C        7.88559317       5.18702445      -7.87818787
N        8.88937256       5.55127846      -8.75647557
C        9.50846252       4.48383966      -9.18004456
N       10.58184691       4.37325246     -10.02014081
C       11.13730312       5.46005863     -10.65428657
O       10.73723497       6.61619430     -10.64383203
C       12.33401789       5.14091478     -11.48140482
C       12.49644575       5.80455343     -12.70435505
C       13.60192535       5.52713108     -13.51170391
C       14.54991582       4.59690055     -13.08772912
Br      16.04749181       4.22121038     -14.17818437
C       14.40781184       3.94662806     -11.86129813
C       13.30003043       4.21957427     -11.05343119
S        8.93666897       2.98575380      -8.59966687
C        7.74991209       3.81483586      -7.66259304
C        6.77915261       3.28903544      -6.79064304
H        1.30688335       0.72178654      -3.60628877
H        2.71225778       2.15178571      -5.04146836
H        3.85140825       4.48789740      -1.59048369
H        2.43031473       3.05750066      -0.15767920
H        5.00932271       2.59448398      -5.15114358
H        5.42074288       6.26292380      -5.79975463
H        7.10564885       7.13249042      -7.35653346
H       10.91347268       3.43920250     -10.20155013
H       11.76017069       6.53830025     -13.02907318
H       13.71479070       6.04448780     -14.46125311
H       15.15921266       3.23732438     -11.52262796
H       13.22324936       3.73412580     -10.08430067
H        6.70996322       2.21580901      -6.64694647
C       -1.79166056      -1.79166056      -1.79166056
C       -2.02027607      -1.43045823      -3.12044213
C       -2.82834314      -2.23381557      -3.92981380
C       -3.40794077      -3.39508151      -3.40191242
C       -3.15780335      -3.75994543      -2.07246364
C       -2.35367699      -2.95357687      -1.26425902
C       -4.27598889      -4.27654439      -4.22913520
O       -4.18403966      -5.48679328      -4.07712781
N       -5.16059137      -3.60337402      -5.05363072
C       -6.10939759      -4.17913913      -5.92680540
C       -6.13020273      -5.53306647      -6.25755219
C       -7.11589523      -6.05402569      -7.10885880
C       -8.11028704      -5.20835298      -7.63216547
N       -9.15603253      -5.58799536      -8.45309870
C       -9.89814249      -4.54982858      -8.72437568
N      -11.04913221      -4.46781063      -9.45829735
C      -11.56738868      -5.54396727     -10.14029236
O      -11.07288361      -6.65562159     -10.26875611
C      -12.85699631      -5.26732343     -10.83201775
C      -13.07427364      -5.83854674     -12.09253384
C      -14.26805919      -5.59663562     -12.77606554
C      -15.24780016      -4.79539819     -12.19134713
Br     -16.86469587      -4.46808477     -13.11410593
C      -15.04925706      -4.23958247     -10.92689850
C      -13.85351395      -4.47688518     -10.24263677
S       -9.40292484      -3.05956842      -8.05959639
C       -8.07058482      -3.85232787      -7.30442830
C       -7.07167520      -3.31486062      -6.47229527
H       -1.56542733      -0.53424354      -3.53528778
H       -2.97146314      -1.96156458      -4.97248413
H       -3.59208130      -4.67183228      -1.66587576
H       -2.17069682      -3.24248497      -0.23231280
H       -5.22392882      -2.60117251      -4.92984894
H       -5.38497033      -6.22480760      -5.87364339
H       -7.12628506      -7.11133196      -7.35705570
H      -11.47276197      -3.55601929      -9.52544405
H      -12.31198138      -6.47240379     -12.54315894
H      -14.42343991      -6.04101299     -13.75607871
H      -15.82324537      -3.63252547     -10.46339416
H      -13.72949019      -4.06909697      -9.24308867
H       -7.07954307      -2.25556206      -6.23761357
C       -1.79166056       1.79166056       1.79166056
C       -2.22945208       3.02793379       1.31379056
C       -3.03479806       3.83850886       2.11866558
C       -3.39488114       3.40768807       3.40236551
C       -2.96645580       2.15708733       3.86666930
C       -2.15827520       1.35067570       3.06256198
C       -4.24889434       4.24111780       4.29165634
O       -5.08579972       3.67832332       4.98383770
N       -3.94487770       5.59128157       4.28143684
C       -4.57309429       6.60623740       5.03601043
C       -5.76286071       6.42000964       5.73795104
C       -6.32558498       7.45837447       6.49482027
C       -5.68108857       8.70648145       6.56323548
N       -6.10169154       9.80388472       7.29155034
C       -5.24932657      10.78032017       7.14270000
N       -5.24258770      12.02624872       7.70640377
C       -6.27002235      12.48305906       8.49856690
O       -7.33039298      11.92387714       8.74299119
C       -6.04902830      13.84284988       9.06445931
C       -7.14079921      14.71662013       9.14793489
C       -6.97208525      16.00271888       9.66595621
C       -5.71480979      16.40732371      10.11241198
Br      -5.48476713      18.14689325      10.81522619
C       -4.62600345      15.53659508      10.05313950
C       -4.79151786      14.25031556       9.53120248
S       -3.91786388      10.48537127       6.11885450
C       -4.49772332       8.88453064       5.84508703
C       -3.93836066       7.85800744       5.06246300
H       -1.95838890       3.36150005       0.31506971
H       -3.39847676       4.78363684       1.72339825
H       -3.26070553       1.81242710       4.85665671
H       -1.82627611       0.38463328       3.43458520
H       -3.10946913       5.86497131       3.78050984
H       -6.29364249       5.47178202       5.71799681
H       -7.25068992       7.30203750       7.04194530
H       -4.46823162      12.62320611       7.46278758
H       -8.12423082      14.39519672       8.80811658
H       -7.82553826      16.67400874       9.72098461
H       -3.65102337      15.84657414      10.42156749
H       -3.94341910      13.57099051       9.52726622
H       -3.01373675       8.03572136       4.52326059
C        1.79166056      -1.79166056       1.79166056
C        1.98767081      -3.13133250       1.45217312
C        2.79226428      -3.94186437       2.25784386
C        3.39433697      -3.40645618       3.40414156
C        3.20733343      -2.05592027       3.72695872
C        2.39953471      -1.24894224       2.92303592
C        4.25633819      -4.23569866       4.28963163
O        5.25395432      -3.71976943       4.77423700
N        3.78085122      -5.51447280       4.52227208
C        4.37765045      -6.50522008       5.33247159
C        5.67344547      -6.41011205       5.83726387
C        6.20335589      -7.41365281       6.66177102
C        5.41932865      -8.53096288       7.00051396
N        5.79797035      -9.57471307       7.82444317
C        4.81297926     -10.42285291       7.93651458
N        4.72871232     -11.56935825       8.67716962
C        5.79515930     -12.06825411       9.38823490
O        6.94397113     -11.64783944       9.40545073
C        5.48640832     -13.29384156      10.17608762
C        6.45498305     -14.30341948      10.24695169
C        6.19987500     -15.47089096      10.96999438
C        4.98213522     -15.62014526      11.63226500
Br       4.63559529     -17.19870419      12.61258709
C        4.01970861     -14.61083864      11.58519078
C        4.27111588     -13.44321937      10.85870065
S        3.39264680     -10.06706792       7.06237493
C        4.12843581      -8.62113143       6.47777376
C        3.59640330      -7.63305844       5.62936935
H        1.52836790      -3.54766587       0.55892489
H        2.96602035      -4.97430206       1.96518944
H        3.68949213      -1.63333992       4.60695729
H        2.25605590      -0.20380232       3.18563637
H        2.85114992      -5.72237235       4.18142799
H        6.31422578      -5.56326609       5.60592945
H        7.21260733      -7.32822351       7.05384189
H        3.85539077     -12.06969503       8.62913951
H        7.40954762     -14.18060336       9.73739314
H        6.95701784     -16.24991172      11.01360206
H        3.07922046     -14.71998046      12.11996407
H        3.52795037     -12.65046860      10.86325686
H        2.58602777      -7.73847659       5.24821434
C       -0.00445707       0.01189536      -1.78238275
H       -0.66409135       0.67374010      -2.43557963
H        0.65740317      -0.63156657      -2.45157240
C       -0.90989263      -0.90692880      -0.91072765
C        0.90977584       0.90977584      -0.90977584
C       -0.00465871       1.77757030       0.00794375
H       -0.66225468       2.44313916      -0.64384735
H        0.64322798       2.43503045       0.67728295
C       -1.78241447       0.00034974      -0.00472694
H       -2.45427497      -0.65498947       0.64260836
H       -2.43311707       0.67328779      -0.65473579
C       -0.91132561       0.90220522       0.91563759
C       -0.01476271      -0.02253852       1.78660255
H       -0.67934791      -0.69751639       2.42135241
H        0.63392994       0.61504881       2.47327442
C        0.01484550      -1.77751727      -0.01636693
H        0.67870853      -2.42144646      -0.68295456
H       -0.62264859      -2.45592969       0.64226336
C        1.78714474       0.01002794       0.00389507
H        2.44202412       0.67113390       0.66197326
H        2.45385902      -0.65136977      -0.64189061
C        0.91606151      -0.90478549       0.90901405
