102
Properties=species:S:1:pos:R:3 pbc="F F F"
C        1.78162117       1.78162117      -1.78162117
S        1.43580839       3.39666156      -2.11131279
C        2.84612935       3.56233748      -3.09298568
C        3.25515991       4.72673146      -3.76229777
C        4.42914291       4.69750771      -4.52180752
Br       4.89539631       6.33170193      -5.39030134
C        5.21277626       3.53088640      -4.63396365
C        6.40912462       3.44265529      -5.38773043
C        7.14725988       2.25908590      -5.46412064
C        6.71395822       1.12666304      -4.78996557
C        5.54151856       1.17479041      -4.03801704
C        4.78075563       2.36343482      -3.94835225
C        3.57809252       2.37224501      -3.16306872
C        2.92988106       1.34136687      -2.38284741
H        2.66171072       5.63408206      -3.68569390
H        6.78995400       4.30283024      -5.93379882
H        8.06110179       2.22744608      -6.05233858
H        7.28673323       0.20466782      -4.84802108
H        5.23194200       0.26917610      -3.52326469
H        3.30080699       0.32995616      -2.27773856
C       -1.78162117      -1.78162117      -1.78162117
S       -1.35606799      -3.34444739      -2.24326736
C       -2.81701258      -3.54325797      -3.14118196
C       -3.19532970      -4.68753388      -3.86132556
C       -4.41824429      -4.69034783      -4.53986604
Br      -4.83699446      -6.29344882      -5.48695630
C       -5.28121292      -3.57563425      -4.52077913
C       -6.52979676      -3.52161253      -5.18810105
C       -7.34609919      -2.38919730      -5.13516994
C       -6.94122745      -1.27539145      -4.41396793
C       -5.71915281      -1.29101645      -3.74415676
C       -4.87908305      -2.42778129      -3.78567836
C       -3.62715621      -2.40432990      -3.08192014
C       -2.99449375      -1.38365330      -2.27594829
H       -2.54083682      -5.55493188      -3.88571799
H       -6.89114034      -4.36901646      -5.76642627
H       -8.29839641      -2.38272825      -5.65976179
H       -7.57480430      -0.39318515      -4.37143268
H       -5.43382558      -0.40126355      -3.18929367
H       -3.42164597      -0.40904068      -2.07781506
C       -1.78162117       1.78162117       1.78162117
S       -3.37996103       1.40644580       2.15737591
C       -3.55629702       2.83550911       3.10964638
C       -4.71428706       3.23328037       3.79662170
C       -4.69532308       4.42530192       4.52783314
Br      -6.31951834       4.87397531       5.42390593
C       -3.54548934       5.23845091       4.59368605
C       -3.46817529       6.45399348       5.31734158
C       -2.30110167       7.22113132       5.34823343
C       -1.17462870       6.79829066       4.65766746
C       -1.21236606       5.60758346       3.93437649
C       -2.38418900       4.81724530       3.89110840
C       -2.38269663       3.59646839       3.13424123
C       -1.35499134       2.95383538       2.34526862
H       -5.60877386       2.61721425       3.75549856
H       -4.32431802       6.82773347       5.87453157
H       -2.27755688       8.14920578       5.91412379
H       -0.26546888       7.39363266       4.68032059
H       -0.31190190       5.30706180       3.40541909
H       -0.35543575       3.34560480       2.20746116
C        1.78162117      -1.78162117       1.78162117
S        3.36257171      -1.38007387       2.20113716
C        3.54994865      -2.82587447       3.12562938
C        4.70124150      -3.21348561       3.82946202
C        4.69294849      -4.42168889       4.53382077
Br       6.30678343      -4.85465631       5.45595983
C        3.56041943      -5.26106071       4.55614616
C        3.49449610      -6.49388072       5.25113352
C        2.34447142      -7.28685921       5.23913580
C        1.22419818      -6.87342135       4.53296730
C        1.25111155      -5.66629829       3.83691618
C        2.40563515      -4.84975021       3.83715734
C        2.39339996      -3.61267937       3.10732693
C        1.36908369      -2.97519612       2.30981553
H        5.58241454      -2.57723794       3.82183420
H        4.34639054      -6.86117204       5.81902049
H        2.32931362      -8.22764808       5.78392475
H        0.32829986      -7.48886296       4.52225931
H        0.35593709      -5.37379013       3.29465557
H        0.38179132      -3.38555385       2.14115655
C       -0.00445707       0.01189536      -1.78238275
H       -0.66409135       0.67374010      -2.43557963
H        0.65740317      -0.63156657      -2.45157240
C       -0.90989263      -0.90692880      -0.91072765
C        0.90977584       0.90977584      -0.90977584
C       -0.00465871       1.77757030       0.00794375
H       -0.66225468       2.44313916      -0.64384735
H        0.64322798       2.43503045       0.67728295
C       -1.78241447       0.00034974      -0.00472694
H       -2.45427497      -0.65498947       0.64260836
H       -2.43311707       0.67328779      -0.65473579
C       -0.91132561       0.90220522       0.91563759
C       -0.01476271      -0.02253852       1.78660255
H       -0.67934791      -0.69751639       2.42135241
H        0.63392994       0.61504881       2.47327442
C        0.01484550      -1.77751727      -0.01636693
H        0.67870853      -2.42144646      -0.68295456
H       -0.62264859      -2.45592969       0.64226336
C        1.78714474       0.01002794       0.00389507
H        2.44202412       0.67113390       0.66197326
H        2.45385902      -0.65136977      -0.64189061
C        0.91606151      -0.90478549       0.90901405
