81
Properties=species:S:1:pos:R:3 pbc="F F F"
C        0.00000000       0.00000000       0.00000000
C        0.87171715       0.87171715      -0.87171715
S        0.52590437       2.48675754      -1.20140876
C        1.93622532       2.65243346      -2.18308165
C        2.34525589       3.81682743      -2.85239374
C        3.51923889       3.78760369      -3.61190350
Br       3.98549229       5.42179791      -4.48039732
C        4.30287224       2.62098237      -3.72405962
C        5.49922060       2.53275126      -4.47782641
C        6.23735586       1.34918188      -4.55421662
C        5.80405419       0.21675901      -3.88006155
C        4.63161454       0.26488638      -3.12811302
C        3.87085161       1.45353080      -3.03844823
C        2.66818850       1.46234099      -2.25316470
C        2.01997704       0.43146285      -1.47294338
H        1.75180669       4.72417804      -2.77578988
H        5.88004998       3.39292622      -5.02389480
H        7.15119777       1.31754205      -5.14243455
H        6.37682920      -0.70523621      -3.93811706
H        4.32203798      -0.64072792      -2.61336067
H        2.39090297      -0.57994787      -1.36783454
C       -0.87171715      -0.87171715      -0.87171715
S       -0.43237488      -2.42299539      -1.35870040
C       -1.90207375      -2.62913453      -2.24053215
C       -2.27507987      -3.76896117      -2.97043602
C       -3.50645598      -3.77886082      -3.63342928
Br      -3.91699148      -5.37508479      -4.59561123
C       -4.38314427      -2.67562841      -3.58914156
C       -5.64076083      -2.62917250      -4.23986494
C       -6.47058074      -1.50807149      -4.16210212
C       -6.07062523      -0.39838306      -3.43186646
C       -4.83996749      -0.40681969      -2.77782676
C       -3.98618285      -1.53210938      -2.84453840
C       -2.72573715      -1.50152292      -2.15643411
C       -2.09576319      -0.48310209      -1.34551799
H       -1.61003073      -4.62752260      -3.01422128
H       -5.99873501      -3.47375218      -4.82438380
H       -7.42952799      -1.50716958      -4.67447680
H       -6.71471659       0.47502274      -3.37001620
H       -4.55883383       0.47942482      -2.21526171
H       -2.53263861       0.48337161      -1.12952264
C       -0.87171715       0.87171715       0.87171715
S       -2.46698343       0.49160297       1.25548427
C       -2.64527094       1.92380077       2.20266872
C       -3.80207725       2.31966931       2.89273050
C       -3.78499938       3.51472130       3.61902540
Br      -5.40736342       3.96045334       4.51987075
C       -2.63822433       4.33278121       3.67690869
C       -2.56292360       5.55155940       4.39531527
C       -1.39886345       6.32353659       4.41835432
C       -0.27348628       5.90245684       3.72493163
C       -0.30931049       4.70867536       3.00662809
C       -1.47807567       3.91342867       2.97132628
C       -1.47468450       2.68960032       2.21940936
C       -0.44757819       2.04793172       1.42887336
H       -4.69421080       1.69982366       2.85774014
H       -3.41831546       5.92409174       4.95446380
H       -1.37680108       7.25399215       4.98038115
H        0.63332951       6.50156302       3.74147655
H        0.59021868       4.40965445       2.47523495
H        0.54980983       2.44318228       1.28541719
C        0.87171715      -0.87171715       0.87171715
S        2.44527911      -0.46000224       1.30878932
C        2.63734717      -1.91225579       2.22213747
C        3.78579440      -2.29594970       2.93273297
C        3.78203537      -3.51039178       3.62631892
Br       5.39146839      -3.93730386       4.55891526
C        2.65685868      -4.35987355       3.63118200
C        2.59577520      -5.59935485       4.31466822
C        1.45299427      -6.40229600       4.28546408
C        0.33535526      -5.99248336       3.57303613
C        0.35766960      -4.77903121       2.88791314
C        1.50484317      -3.95237819       2.90560927
C        1.48804342      -2.70902527       2.18662550
C        0.46516725      -2.07352757       1.38568845
H        4.66131065      -1.65192117       2.93854279
H        3.44586450      -5.96415985       4.88684664
H        1.44139998      -7.34798683       4.82178756
H       -0.55490851      -6.61567421       3.54894436
H       -0.53525743      -4.48961257       2.34031558
H       -0.51691471      -2.49105188       1.20465246
