110
Properties=species:S:1:pos:R:3 pbc="F F F"
C        1.78162117       1.78162117      -1.78162117
S        1.43580839       3.39666156      -2.11131279
C        2.84612935       3.56233748      -3.09298568
C        3.25515991       4.72673146      -3.76229777
C        4.42914291       4.69750771      -4.52180752
C        5.21277626       3.53088640      -4.63396365
C        6.40912462       3.44265529      -5.38773043
C        7.14725988       2.25908590      -5.46412064
C        6.71395822       1.12666304      -4.78996557
C        5.54151856       1.17479041      -4.03801704
C        4.78075563       2.36343482      -3.94835225
C        3.57809252       2.37224501      -3.16306872
C        2.92988106       1.34136687      -2.38284741
H        2.66171072       5.63408206      -3.68569390
H        6.78995400       4.30283024      -5.93379882
H        8.06110179       2.22744608      -6.05233858
H        7.28673323       0.20466782      -4.84802108
H        5.23194200       0.26917610      -3.52326469
H        3.30080699       0.32995616      -2.27773856
C        4.78094528       5.93055696      -5.17711253
C        5.07557977       6.96323570      -5.72593047
Br       5.55197881       8.63298989      -6.61332266
C       -1.78162117      -1.78162117      -1.78162117
S       -1.30843171      -3.30033120      -2.33501983
C       -2.79961953      -3.52713916      -3.17469382
C       -3.15958922      -4.65441797      -3.93018195
C       -4.41173536      -4.68430116      -4.55242163
C       -5.32210146      -3.61344976      -4.44207509
C       -6.60188994      -3.58833118      -5.04928922
C       -7.46489112      -2.49914006      -4.90643525
C       -7.07700312      -1.40106376      -4.15251995
C       -5.82527703      -1.38922739      -3.53982160
C       -4.93782606      -2.48215273      -3.67256391
C       -3.65646975      -2.43144369      -3.02549282
C       -3.03309457      -1.41938408      -2.20161669
H       -2.46862785      -5.48805743      -4.02480140
H       -6.95159376      -4.42494615      -5.65004316
H       -8.44016201      -2.51393917      -5.38678526
H       -7.74690439      -0.55247832      -4.04003942
H       -5.55443749      -0.51287795      -2.95706735
H       -3.49383740      -0.47586473      -1.93879958
C       -4.70628230      -5.87406635      -5.30826613
C       -4.95296536      -6.87049469      -5.94128590
Br      -5.35183100      -8.48163504      -6.96482532
C       -1.78162117       1.78162117       1.78162117
S       -3.36881566       1.38912225       2.18584483
C       -3.55222818       2.82918020       3.12004412
C       -4.70592579       3.22027736       3.81798598
C       -4.69380119       4.42292859       4.53172838
C       -3.55505868       5.25330325       4.56926438
C       -3.48504529       6.48019524       5.27426981
C       -2.32889896       7.26430769       5.27725978
C       -1.20639960       6.84764366       4.57654357
C       -1.23719952       5.64615299       3.87097351
C       -2.39793462       4.83859762       3.85601045
C       -2.38955684       3.60711735       3.11673207
C       -1.36402364       2.96786715       2.32220456
H       -5.59187933       2.59095408       3.79865327
H       -4.33846519       6.84969916       5.83841871
H       -2.31072969       8.20073418       5.82942259
H       -0.30573956       7.45618900       4.57749357
H       -0.34012574       5.35089538       3.33336168
H       -0.37232798       3.37184713       2.16432659
C       -5.91429562       4.75368169       5.22063746
C       -6.93645970       5.03068742       5.79759882
Br      -8.58921257       5.47858224       6.73049655
C        1.78162117      -1.78162117       1.78162117
S        3.33427138      -1.34386230       2.26564906
C        3.53961641      -2.81264469       3.14919141
C        4.68000961      -3.18630466       3.87787487
C        4.68908300      -4.41672718       4.54264797
C        3.58471487      -5.29210474       4.50080669
C        3.53732963      -6.54864876       5.15353195
C        2.41505010      -7.37710853       5.07830779
C        1.30486670      -6.97658177       4.34913835
C        1.31416446      -5.74691787       3.69324368
C        2.44053622      -4.89438204       3.75762445
C        2.41081743      -3.63493773       3.06765110
C        1.39201746      -3.00452620       2.25755168
H        5.53951588      -2.52234598       3.91962482
H        4.38230969      -6.90708501       5.73718836
H        2.41354136      -8.33535544       5.59198964
H        0.43054989      -7.61962173       4.28925051
H        0.42759805      -5.46541270       3.13137204
H        0.42468214      -3.44040723       2.04341235
C        5.89404884      -4.72714228       5.26742366
C        6.90320773      -4.98711492       5.87442329
Br       8.53493230      -5.40746870       6.85589036
C       -0.00445707       0.01189536      -1.78238275
H       -0.66409135       0.67374010      -2.43557963
H        0.65740317      -0.63156657      -2.45157240
C       -0.90989263      -0.90692880      -0.91072765
C        0.90977584       0.90977584      -0.90977584
C       -0.00465871       1.77757030       0.00794375
H       -0.66225468       2.44313916      -0.64384735
H        0.64322798       2.43503045       0.67728295
C       -1.78241447       0.00034974      -0.00472694
H       -2.45427497      -0.65498947       0.64260836
H       -2.43311707       0.67328779      -0.65473579
C       -0.91132561       0.90220522       0.91563759
C       -0.01476271      -0.02253852       1.78660255
H       -0.67934791      -0.69751639       2.42135241
H        0.63392994       0.61504881       2.47327442
C        0.01484550      -1.77751727      -0.01636693
H        0.67870853      -2.42144646      -0.68295456
H       -0.62264859      -2.45592969       0.64226336
C        1.78714474       0.01002794       0.00389507
H        2.44202412       0.67113390       0.66197326
H        2.45385902      -0.65136977      -0.64189061
C        0.91606151      -0.90478549       0.90901405
