78
Properties=species:S:1:pos:R:3 pbc="F F F"
C        1.79518975       1.79518975      -1.79518975
N        1.52936137       3.11700954      -1.82011277
C        2.32151176       3.88451877      -2.60490594
C        3.34560080       3.40542587      -3.41814735
N        4.19602437       4.28662949      -4.10197213
C        3.60931853       2.03426833      -3.31165758
C        2.82155064       1.20881088      -2.51175516
H        2.10133218       4.94785821      -2.55795614
H        3.75492510       5.14822719      -4.41124690
H        4.72800718       3.83447828      -4.84352587
H        3.01070824       0.14356134      -2.44549190
C        4.68950861       1.43031414      -4.04788358
C        5.59416780       0.92450249      -4.66447286
Br       7.05692520       0.10664785      -5.66144556
C       -1.79518975      -1.79518975      -1.79518975
N       -1.58327437      -3.12639690      -1.75681241
C       -2.37470057      -3.89364323      -2.54259268
C       -3.34519510      -3.40831742      -3.41566151
N       -4.20347950      -4.28260612      -4.09854036
C       -3.55619805      -2.02457569      -3.37447071
C       -2.76735735      -1.19867979      -2.57607954
H       -2.20055296      -4.96202430      -2.44456927
H       -3.78636400      -5.17299515      -4.35504004
H       -4.68661842      -3.84069749      -4.87869543
H       -2.91493495      -0.12495442      -2.55987212
C       -4.58060474      -1.40919911      -4.17790248
C       -5.43854534      -0.89382123      -4.85077658
Br      -6.82576274      -0.06049878      -5.93875709
C       -1.79518975       1.79518975       1.79518975
N       -2.99693162       1.30640103       2.16315103
C       -3.76501553       2.09961848       2.94630246
C       -3.42881010       3.38902057       3.35134335
N       -4.22963945       4.09020543       4.26478111
C       -2.14921703       3.82275495       2.98327246
C       -1.32423918       3.03587759       2.18199991
H       -4.70326375       1.64716988       3.25671290
H       -5.22462923       3.89678820       4.19298175
H       -4.02855295       5.08836448       4.28909390
H       -0.34221943       3.37957601       1.87796605
C       -1.65653407       5.10955313       3.40161912
C       -1.24391209       6.18724662       3.75198445
Br      -0.57673724       7.92978582       4.31849555
C        1.79518975      -1.79518975       1.79518975
N        3.09734755      -1.46275263       1.90638349
C        3.86437519      -2.25327153       2.69328975
C        3.42171964      -3.40079909       3.34665529
N        4.25490529      -4.08855256       4.24116813
C        2.05122516      -3.66676305       3.23725623
C        1.22478732      -2.87567391       2.44165545
H        4.89471947      -1.92131451       2.79111255
H        5.24192499      -4.07234436       4.00012984
H        3.92275212      -5.02705176       4.45620744
H        0.16796554      -3.09338214       2.33841381
C        1.45829809      -4.78430962       3.92509861
C        0.96172166      -5.72025487       4.50116661
Br       0.15879958      -7.23359919       5.43261984
C       -0.00445707       0.01189536      -1.78238275
H       -0.66409135       0.67374010      -2.43557963
H        0.65740317      -0.63156657      -2.45157240
C       -0.90989263      -0.90692880      -0.91072765
C        0.90977584       0.90977584      -0.90977584
C       -0.00465871       1.77757030       0.00794375
H       -0.66225468       2.44313916      -0.64384735
H        0.64322798       2.43503045       0.67728295
C       -1.78241447       0.00034974      -0.00472694
H       -2.45427497      -0.65498947       0.64260836
H       -2.43311707       0.67328779      -0.65473579
C       -0.91132561       0.90220522       0.91563759
C       -0.01476271      -0.02253852       1.78660255
H       -0.67934791      -0.69751639       2.42135241
H        0.63392994       0.61504881       2.47327442
C        0.01484550      -1.77751727      -0.01636693
H        0.67870853      -2.42144646      -0.68295456
H       -0.62264859      -2.45592969       0.64226336
C        1.78714474       0.01002794       0.00389507
H        2.44202412       0.67113390       0.66197326
H        2.45385902      -0.65136977      -0.64189061
C        0.91606151      -0.90478549       0.90901405
