57
Properties=species:S:1:pos:R:3 pbc="F F F"
C        0.00000000       0.00000000       0.00000000
C        0.88528572       0.88528572      -0.88528572
N        0.61945734       2.20710551      -0.91020875
C        1.41160773       2.97461474      -1.69500192
C        2.43569678       2.49552184      -2.50824333
N        3.28612035       3.37672546      -3.19206811
C        2.69941451       1.12436431      -2.40175356
C        1.91164662       0.29890685      -1.60185113
H        1.19142816       4.03795418      -1.64805212
H        2.84502108       4.23832317      -3.50134287
H        3.81810316       2.92457425      -3.93362185
H        2.10080422      -0.76634268      -1.53558787
C        3.77960458       0.52041011      -3.13797956
C        4.68426377       0.01459847      -3.75456883
Br       6.14702117      -0.80325617      -4.75154154
C       -0.88528572      -0.88528572      -0.88528572
N       -0.75863087      -2.22164808      -0.75649266
C       -1.54889138      -2.98863276      -1.54370025
C       -2.43509154      -2.50254011      -2.50183030
N       -3.30457124      -3.36593178      -3.18441090
C       -2.56222066      -1.10896890      -2.55434281
C       -1.77164583      -0.28261655      -1.75814223
H       -1.44709714      -4.05723405      -1.37310327
H       -2.92905818      -4.29322884      -3.36240009
H       -3.71326385      -2.94571566      -4.01731975
H       -1.85328243       0.79682267      -1.81358966
C       -3.49815382      -0.48585456      -3.45398587
C       -4.28199784       0.03600370      -4.20743694
Br      -5.54940733       0.87980437      -5.42570358
C       -0.88528572       0.88528572       0.88528572
N       -2.11943471       0.43208558       1.18525132
C       -2.88714640       1.22466867       1.96940933
C       -2.51729614       2.48223324       2.43993257
N       -3.32667078       3.17914251       3.34910062
C       -1.20758670       2.87727903       2.14066665
C       -0.38208004       2.08940597       1.34091860
H       -3.85443572       0.79920890       2.22378984
H       -4.32472548       3.02968178       3.23027985
H       -3.08757857       4.16647918       3.42224150
H        0.62436351       2.40424487       1.09016806
C       -0.68216062       4.12530094       2.63053269
C       -0.24211628       5.17051929       3.04079551
Br       0.46939820       6.86054896       3.70415578
C        0.88528572      -0.88528572       0.88528572
N        2.20562636      -0.61304134       0.91810390
C        2.97252990      -1.40256449       1.70613001
C        2.50907736      -2.49449554       2.43588905
N        3.35218898      -3.17969020       3.32303473
C        1.12379488      -2.69694455       2.40479294
C        0.29721622      -1.90431329       1.61087510
H        4.02101039      -1.11793230       1.73849176
H        4.32568004      -3.22394268       3.03506439
H        2.98709845      -4.08930987       3.59989094
H       -0.77254356      -2.07390712       1.56868585
C        0.51355533      -3.74987109       3.17456783
C        0.00247970      -4.63169707       3.81925430
Br      -0.82388636      -6.05753510       4.86165780
