126
Properties=species:S:1:pos:R:3 pbc="F F F"
C        1.79281291       1.79281291      -1.79281291
C        1.48395662       3.13954004      -1.94286152
C        2.27676807       3.96674481      -2.74533968
C        3.38885372       3.40057785      -3.39241001
C        3.71142253       2.04802604      -3.25059341
C        2.89786957       1.23097581      -2.43595806
C        4.88452830       1.79632234      -4.02891498
C        5.66159110       0.64295602      -4.27086857
C        6.77883239       0.73646992      -5.10458893
C        7.13517798       1.94333294      -5.69679521
C        6.37910983       3.09735897      -5.47014066
C        5.25623524       2.99873375      -4.63089615
N        4.33756771       3.95154056      -4.23087924
C        4.39131486       5.33519317      -4.65322493
H        0.62052733       3.56504155      -1.43652652
H        2.02348586       5.01687597      -2.85327453
H        3.13496890       0.17846913      -2.31549366
H        5.38825336      -0.30179315      -3.81128665
H        8.00736075       2.00178442      -6.34363743
H        6.66136400       4.03693218      -5.93467448
H        3.56958139       5.90426133      -4.21674873
H        4.31510848       5.36486766      -5.74348600
H        5.34314081       5.75892059      -4.32178928
C        7.57367641      -0.43819369      -5.35356360
C        8.23935827      -1.42197447      -5.56207988
Br       9.31570954      -3.01266478      -5.89923307
C       -1.79281291      -1.79281291      -1.79281291
C       -1.84649216      -3.16163398      -1.55823205
C       -2.64680635      -3.98933486      -2.35271134
C       -3.39135525      -3.40081966      -3.38966666
C       -3.34712428      -2.02589508      -3.63702262
C       -2.53282976      -1.20876671      -2.82320698
C       -4.20819591      -1.75521984      -4.74634987
C       -4.56254263      -0.57608593      -5.43678714
C       -5.45555866      -0.65600552      -6.50832706
C       -5.99812505      -1.87424913      -6.90293195
C       -5.66033277      -3.05375494      -6.23252175
C       -4.76180535      -2.96872110      -5.15533868
N       -4.25296928      -3.94647613      -4.32054211
C       -4.59794289      -5.34786730      -4.43392277
H       -1.26534827      -3.60428641      -0.75246073
H       -2.67895763      -5.05684040      -2.15783834
H       -2.48755641      -0.13902149      -3.00235378
H       -4.14221054       0.37766178      -5.13319810
H       -6.69207292      -1.92190102      -7.73880866
H       -6.08650788      -4.00212238      -6.54434040
H       -4.08081816      -5.93542519      -3.67434810
H       -4.30086644      -5.69560706      -5.42698865
H       -5.67813149      -5.44796140      -4.29775779
C       -5.81911385       0.54492717      -7.21485964
C       -6.12359132       1.55070831      -7.80658067
Br      -6.61590564       3.17697133      -8.76334354
C       -1.79281291       1.79281291       1.79281291
C       -3.16794704       1.59182255       1.80658860
C       -3.99577522       2.38700123       2.60607610
C       -3.40085554       3.38990815       3.39107789
C       -2.01954527       3.60327645       3.38722026
C       -1.20240682       2.78938852       2.57300810
C       -1.74343254       4.68369724       4.28263585
C       -0.55693813       5.33496736       4.68351021
C       -0.63294708       6.38573950       5.60120466
C       -1.85443073       6.79760201       6.12327339
C       -3.04122120       6.16594569       5.73944257
C       -2.96010102       5.10954056       4.81622355
N       -3.94499511       4.31271361       4.26227880
C       -5.35145842       4.45307663       4.57519791
H       -3.61551958       0.81220051       1.19437531
H       -5.06825298       2.21857263       2.60681076
H       -0.12774705       2.94236901       2.55881563
H        0.39936582       5.01775427       4.27935840
H       -1.89897353       7.61697128       6.83683779
H       -3.99209282       6.49110177       6.14977607
H       -5.94432702       3.72171724       4.02454718
H       -5.66683066       5.46171054       4.29492094
H       -5.48230316       4.29277996       5.64876755
C        0.57549720       7.05231290       6.01223061
C        1.58756928       7.61056813       6.35646483
Br       3.22400424       8.51321961       6.91306247
C        1.79281291      -1.79281291       1.79281291
C        3.17293353      -1.63199299       1.76143166
C        4.00086090      -2.42800781       2.55998385
C        3.40088071      -3.39019635       3.39076451
C        2.01452725      -3.56291937       3.43259535
C        1.19738201      -2.74894521       2.61847623
C        1.73411804      -4.60877099       4.36687660
C        0.54181001      -5.21320165       4.82040404
C        0.61472755      -6.23913741       5.76602628
C        1.83876930      -6.67163788       6.26489895
C        3.03131409      -6.08632690       5.82896847
C        2.95328806      -5.05477038       4.87780669
N        3.94382208      -4.30335100       4.27281443
C        5.35429206      -4.47598195       4.54945896
H        3.62439418      -0.88364290       1.11405833
H        5.07726679      -2.29120386       2.52516570
H        0.11884144      -2.87063393       2.63945632
H       -0.41651162      -4.87969601       4.43456246
H        1.88085410      -7.47126570       7.00066280
H        3.98416287      -6.42743289       6.22137490
H        5.95135803      -3.77836535       3.96086806
H        5.63238382      -5.50103186       4.29004647
H        5.52113769      -4.28902765       5.61368533
C       -0.59965043      -6.85792405       6.23077269
C       -1.61669198      -7.37615786       6.61999780
Br      -3.26116216      -8.21409810       7.24934190
C       -0.00445707       0.01189536      -1.78238275
H       -0.66409135       0.67374010      -2.43557963
H        0.65740317      -0.63156657      -2.45157240
C       -0.90989263      -0.90692880      -0.91072765
C        0.90977584       0.90977584      -0.90977584
C       -0.00465871       1.77757030       0.00794375
H       -0.66225468       2.44313916      -0.64384735
H        0.64322798       2.43503045       0.67728295
C       -1.78241447       0.00034974      -0.00472694
H       -2.45427497      -0.65498947       0.64260836
H       -2.43311707       0.67328779      -0.65473579
C       -0.91132561       0.90220522       0.91563759
C       -0.01476271      -0.02253852       1.78660255
H       -0.67934791      -0.69751639       2.42135241
H        0.63392994       0.61504881       2.47327442
C        0.01484550      -1.77751727      -0.01636693
H        0.67870853      -2.42144646      -0.68295456
H       -0.62264859      -2.45592969       0.64226336
C        1.78714474       0.01002794       0.00389507
H        2.44202412       0.67113390       0.66197326
H        2.45385902      -0.65136977      -0.64189061
C        0.91606151      -0.90478549       0.90901405
