125
Properties=species:S:1:pos:R:3 pbc="F F F"
C        0.00000000       0.00000000       0.00000000
C        0.88225612       0.88225612      -0.88225612
C        0.43207521       2.14660260      -1.26135942
C        1.24701591       2.96461509      -2.04430991
C        2.50344389       2.51337725      -2.44370622
O        3.25688740       3.38500691      -3.18428963
C        2.94558710       1.22877041      -2.09369063
C        2.13226255       0.41535291      -1.29235080
C        4.27903642       0.76461305      -2.55635011
O        5.15521081       1.60472763      -2.74408095
N        4.38937383      -0.59128895      -2.80724435
N        5.58183041      -1.11599035      -3.22249683
C        5.54947031      -2.32961913      -3.67321194
C        4.33265135      -3.24231701      -3.85054514
O        3.20105710      -2.95380535      -3.52208794
N        4.81502367      -4.39574489      -4.42815840
C        6.19537215      -4.31799014      -4.59737262
C        7.02859118      -5.28420033      -5.11864296
C        8.39745383      -4.99079782      -5.16837213
C        8.89036902      -3.75256855      -4.70371954
Br      10.75039066      -3.41386978      -4.77747684
C        8.03663575      -2.77775047      -4.18649996
C        6.69488753      -3.09426182      -4.14953306
H       -0.54263891       2.50899753      -0.94482929
H        0.91057967       3.95661796      -2.33472295
H        4.17482351       3.02963017      -3.22590937
H        2.47248147      -0.56244987      -0.96357208
H        3.55898396      -1.18645396      -2.83156557
H        4.23097698      -5.18366187      -4.66636550
H        6.65292910      -6.23748400      -5.47339145
H        9.08524914      -5.73345964      -5.56911988
H        8.39649280      -1.82050659      -3.82411442
C       -0.88225612      -0.88225612      -0.88225612
C       -0.43462862      -2.14897404      -1.25643457
C       -1.24966992      -2.96689448      -2.03937651
C       -2.50364382      -2.51320532      -2.44367822
O       -3.25746420      -3.38479701      -3.18392273
C       -2.94309196      -1.22633393      -2.09862223
C       -2.12973277      -0.41295092      -1.29728258
C       -4.27386793      -0.75968642      -2.56644522
O       -5.15191335      -1.59782086      -2.75428518
N       -4.37958426       0.59579914      -2.82154411
N       -5.56933047       1.12272215      -3.24172857
C       -5.53218656       2.33495152      -3.69582808
C       -4.31224343       3.24364137      -3.87227743
O       -3.18243063       2.95283105      -3.53974012
N       -4.78963687       4.39678178      -4.45458209
C       -6.16971225       4.32250033      -4.62754271
C       -6.99864970       5.28959305      -5.15397717
C       -8.36820243       4.99997640      -5.20680211
C       -8.86600838       3.76450791      -4.74001953
Br     -10.72677743       3.43093510      -4.81815539
C       -8.01657001       2.78873686      -4.21755210
C       -6.67402840       3.10150323      -4.17763361
H        0.53812702      -2.51325132      -0.93606360
H       -0.91525710      -3.96068964      -2.32597383
H       -4.17425105      -3.02690989      -3.22920212
H       -2.46807913       0.56676549      -0.97229004
H       -3.54741937       1.18850735      -2.84518356
H       -4.20264512       5.18233171      -4.69336719
H       -6.61923084       6.24077080      -5.51037650
H       -9.05270615       5.74345216      -5.61165540
H       -8.38021727       1.83357559      -3.85345895
C       -0.88225612       0.88225612       0.88225612
C       -2.17005825       0.45945547       1.21052350
C       -2.96755921       1.25045265       2.03792905
C       -2.47388555       2.45734441       2.52929740
O       -3.30413849       3.16248802       3.35955743
C       -1.19207984       2.90275743       2.17321086
C       -0.38604704       2.09805320       1.35586602
C       -0.70251873       4.20655243       2.69092841
O       -1.13015871       4.60123668       3.77262400
N        0.15171415       4.90249861       1.85454478
N        0.66714988       6.10577119       2.24971557
C        1.24953961       6.81026952       1.33233321
C        1.39241147       6.49208442      -0.15879346
O        1.01309147       5.46649263      -0.68406146
N        2.02395846       7.58365913      -0.71226349
C        2.32080377       8.52672918       0.26882922
C        2.96878462       9.73142393       0.10039450
C        3.18063599      10.51049325       1.24517088
C        2.74147296      10.07064186       2.51235111
Br       3.06852845      11.15351475       4.02901142
C        2.07805181       8.85340848       2.67002857
C        1.88389349       8.10777557       1.52627670
H       -2.55777550      -0.48569937       0.83911177
H       -3.96810165       0.92398482       2.30983410
H       -2.77143791       3.87343034       3.78549481
H        0.62912466       2.39465060       1.10807774
H        0.28874112       4.60690276       0.88593393
H        2.24927448       7.65634819      -1.69339310
H        3.30997735      10.07026829      -0.87145439
H        3.69430559      11.46559593       1.14961905
H        1.73348320       8.49807702       3.63550681
C        0.88225612      -0.88225612       0.88225612
C        1.99109434      -0.32786951       1.52107338
C        2.78244560      -1.12494459       2.34855072
C        2.46161016      -2.46875489       2.53016230
O        3.26733358      -3.17803480       3.38081556
C        1.36753812      -3.03857499       1.86193503
C        0.56360972      -2.23160906       1.04474749
C        1.06538266      -4.48058137       2.05403554
O        1.37994712      -5.00458596       3.11948631
N        0.51216127      -5.12879303       0.96437494
N        0.18525413      -6.45379104       1.04929171
C       -0.09022873      -7.05008014      -0.06678829
C       -0.04769934      -6.47335655      -1.48477772
O        0.20363252      -5.31684821      -1.75114103
N       -0.35414593      -7.52328890      -2.32170578
C       -0.61620949      -8.67592598      -1.58496186
C       -0.97913170      -9.91340677      -2.07124125
C       -1.21784490     -10.92570002      -1.13282698
C       -1.08598841     -10.67723762       0.25027079
Br      -1.43715481     -12.07498235       1.47617018
C       -0.70884098      -9.42300675       0.73121947
C       -0.48084768      -8.44612973      -0.21512327
H        2.24123667       0.72206478       1.39201602
H        3.64159207      -0.69948162       2.86084688
H        2.82219308      -4.03582045       3.57234953
H       -0.31946994      -2.63530170       0.55777191
H        0.47959839      -4.67540141       0.04909577
H       -0.39783501      -7.43794744      -3.32643183
H       -1.08419933     -10.10613210      -3.13309622
H       -1.51170906     -11.91423351      -1.48161507
H       -0.60270298      -9.21253992       1.79026369
