133
Properties=species:S:1:pos:R:3 pbc="F F F"
C        0.00000000       0.00000000       0.00000000
C        0.88225612       0.88225612      -0.88225612
C        0.43207521       2.14660260      -1.26135942
C        1.24701591       2.96461509      -2.04430991
C        2.50344389       2.51337725      -2.44370622
O        3.25688740       3.38500691      -3.18428963
C        2.94558710       1.22877041      -2.09369063
C        2.13226255       0.41535291      -1.29235080
C        4.27903642       0.76461305      -2.55635011
O        5.15521081       1.60472763      -2.74408095
N        4.38937383      -0.59128895      -2.80724435
N        5.58183041      -1.11599035      -3.22249683
C        5.54947031      -2.32961913      -3.67321194
C        4.33265135      -3.24231701      -3.85054514
O        3.20105710      -2.95380535      -3.52208794
N        4.81502367      -4.39574489      -4.42815840
C        6.19537215      -4.31799014      -4.59737262
C        7.02859118      -5.28420033      -5.11864296
C        8.39745383      -4.99079782      -5.16837213
C        8.89036902      -3.75256855      -4.70371954
C        8.03663575      -2.77775047      -4.18649996
C        6.69488753      -3.09426182      -4.14953306
H       -0.54263891       2.50899753      -0.94482929
H        0.91057967       3.95661796      -2.33472295
H        4.17482351       3.02963017      -3.22590937
H        2.47248147      -0.56244987      -0.96357208
H        3.55898396      -1.18645396      -2.83156557
H        4.23097698      -5.18366187      -4.66636550
H        6.65292910      -6.23748400      -5.47339145
H        9.08524914      -5.73345964      -5.56911988
H        8.39649280      -1.82050659      -3.82411442
C       10.30599600      -3.49479138      -4.75985481
C       11.49158360      -3.27890299      -4.80686811
Br      13.40857848      -2.92982974      -4.88288463
C       -0.88225612      -0.88225612      -0.88225612
C       -0.48873012      -2.19098476      -1.16032235
C       -1.30568858      -3.00704373      -1.94320860
C       -2.50746670      -2.50971466      -2.44334601
O       -3.26882394      -3.38015100      -3.17720900
C       -2.89008754      -1.18302296      -2.19493763
C       -2.07607130      -0.37033364      -1.39356132
C       -4.16421233      -0.67225259      -2.76353466
O       -5.07760508      -1.47068296      -2.95573135
N       -4.17745741       0.66999812      -3.09786994
N       -5.31011811       1.23590962      -3.61412839
C       -5.17836565       2.41607970      -4.13077717
C       -3.90021140       3.24516999      -4.28583807
O       -2.80888823       2.91283700      -3.87328847
N       -4.27778777       4.38710715      -4.95675656
C       -5.64835665       4.37836183      -5.20475981
C       -6.39015094       5.35723959      -5.83012246
C       -7.76921025       5.14019781      -5.94601569
C       -8.36220296       3.96272288      -5.44203992
C       -7.60025689       2.97384697      -4.81897531
C       -6.24608345       3.21469400      -4.71876933
H        0.44245593      -2.58868737      -0.76495646
H       -1.01404755      -4.03248154      -2.15539148
H       -4.15959287      -2.97599657      -3.29477361
H       -2.37454036       0.64350015      -1.14256347
H       -3.31242712       1.21407609      -3.10574455
H       -3.63429182       5.12437645      -5.20376523
H       -5.93759859       6.26414946      -6.21538742
H       -8.38656354       5.89530211      -6.42964795
H       -8.03773703       2.06254979      -4.42491339
C       -9.78533320       3.78347002      -5.56919626
C      -10.97720478       3.63334575      -5.67568969
Br     -12.90436031       3.39060751      -5.84788056
C       -0.88225612       0.88225612       0.88225612
C       -2.11394337       0.40089829       1.32519557
C       -2.90906591       1.19398796       2.15288704
C       -2.46916864       2.46124179       2.53011693
O       -3.29078861       3.16694542       3.36844991
C       -1.24680633       2.96280442       2.05843738
C       -0.44159514       2.15731371       1.24105740
C       -0.81598927       4.32808081       2.45592949
O       -1.19915084       4.76804211       3.53682644
N       -0.06756656       5.01832560       1.51943708
N        0.38803780       6.27674308       1.79963160
C        0.86001642       6.95237157       0.80070797
C        0.92798554       6.54194132      -0.67307630
O        0.58723340       5.46021650      -1.10364341
N        1.44567571       7.63119688      -1.33808400
C        1.73942916       8.65689895      -0.44271516
C        2.29051974       9.88639639      -0.73284284
C        2.52153746      10.75464088       0.34192471
C        2.19645594      10.37585373       1.66212221
C        1.63016513       9.13213516       1.94341521
C        1.41452034       8.29838991       0.86628921
H       -2.45867740      -0.59067514       1.04318565
H       -3.86506204       0.82317924       2.51367929
H       -2.78204067       3.93847146       3.70985092
H        0.53258208       2.50099364       0.90519212
H        0.02674171       4.66605987       0.56477741
H        1.60165881       7.65040223      -2.33506281
H        2.54409553      10.17868427      -1.74575219
H        2.96084221      11.73202467       0.14972692
H        1.37395508       8.82277650       2.95127921
C        2.46187600      11.29203004       2.74090540
C        2.68416530      12.05932770       3.64438631
Br       3.04358830      13.29998312       5.10523854
C        0.88225612      -0.88225612       0.88225612
C        2.22511229      -0.55201844       1.06290650
C        3.02586049      -1.34058361       1.88949681
C        2.48027506      -2.45287201       2.52738029
O        3.32090918      -3.15896206       3.34631269
C        1.13897494      -2.80840203       2.32067116
C        0.33180771      -2.00462631       1.50353224
C        0.59181641      -4.01504625       2.99313692
O        1.08140989      -4.35571184       4.06689765
N       -0.38942140      -4.69777709       2.29697355
N       -0.96501374      -5.81248502       2.84086561
C       -1.68450949      -6.53503693       2.04253568
C       -1.93490819      -6.33004592       0.54574175
O       -1.52092290      -5.39014408      -0.09988149
N       -2.70235636      -7.40209898       0.14769456
C       -2.98637329      -8.22975056       1.23137737
C       -3.74465505      -9.38063238       1.22705649
C       -3.91589384     -10.03963900       2.45128298
C       -3.32882764      -9.53773945       3.63260819
C       -2.55515608      -8.37670445       3.62383688
C       -2.40415792      -7.74919416       2.40512253
H        2.65468764       0.32006075       0.57656102
H        4.07053541      -1.08461712       2.04676805
H        2.77181783      -3.78095056       3.87759467
H       -0.72272377      -2.22762292       1.36870453
H       -0.58858441      -4.47237950       1.32030048
H       -3.02083081      -7.53524340      -0.80073199
H       -4.19937213      -9.76665571       0.32155297
H       -4.51357305     -10.94893160       2.48555084
H       -2.09629752      -7.97515306       4.52124510
C       -3.53972854     -10.23734323       4.87344475
C       -3.71635804     -10.82326140       5.91264536
Br      -4.00195302     -11.77064152       7.59294486
