146
Properties=species:S:1:pos:R:3 pbc="F F F"
C        1.79216014       1.79216014      -1.79216014
C        1.34197923       3.05650662      -2.17126344
C        2.15691993       3.87451911      -2.95421394
C        3.41334792       3.42328127      -3.35361024
O        4.16679142       4.29491093      -4.09419365
C        3.85549112       2.13867443      -3.00359465
C        3.04216657       1.32525694      -2.20225483
C        5.18894044       1.67451707      -3.46625414
O        6.06511484       2.51463165      -3.65398498
N        5.29927786       0.31861508      -3.71714837
N        6.49173443      -0.20608633      -4.13240086
C        6.45937433      -1.41971510      -4.58311596
C        5.24255537      -2.33241298      -4.76044917
O        4.11096112      -2.04390132      -4.43199197
N        5.72492770      -3.48584087      -5.33806243
C        7.10527617      -3.40808611      -5.50727664
C        7.93849521      -4.37429631      -6.02854699
C        9.30735785      -4.08089380      -6.07827615
C        9.80027304      -2.84266453      -5.61362356
Br      11.66029468      -2.50396575      -5.68738086
C        8.94653977      -1.86784644      -5.09640399
C        7.60479156      -2.18435779      -5.05943709
H        0.36726511       3.41890155      -1.85473332
H        1.82048369       4.86652198      -3.24462697
H        5.08472754       3.93953419      -4.13581340
H        3.38238549       0.34745415      -1.87347611
H        4.46888798      -0.27654993      -3.74146960
H        5.14088100      -4.27375785      -5.57626952
H        7.56283312      -5.32757998      -6.38329547
H        9.99515317      -4.82355562      -6.47902391
H        9.30639683      -0.91060257      -4.73401845
C       -1.79216014      -1.79216014      -1.79216014
C       -1.78702850      -3.17457364      -1.60814716
C       -2.61181911      -3.97972957      -2.39410430
C       -3.43337984      -3.39876982      -3.35808977
O       -4.23643754      -4.25120249      -4.06825598
C       -3.41566297      -2.01205483      -3.57004241
C       -2.59906123      -1.20332698      -2.76729012
C       -4.28285510      -1.42359341      -4.62326314
O       -5.33112117      -1.99928428      -4.90332601
N       -3.78280423      -0.29844047      -5.25379661
N       -4.51510116       0.32368178      -6.22662958
C       -3.89097383       1.20703493      -6.93883628
C       -2.41586962       1.61197483      -6.86669677
O       -1.62146140       1.18028659      -6.05787696
N       -2.23391614       2.53200443      -7.87523754
C       -3.43328239       2.77079293      -8.54197723
C       -3.64841135       3.64293255      -9.58726709
C       -4.95416347       3.73547849     -10.08605523
C       -5.99697331       2.96045954      -9.53471831
Br      -7.74615324       3.13658159     -10.23413815
C       -5.76605574       2.07361582      -8.48265739
C       -4.47169339       2.00375697      -8.01193444
H       -1.15629884      -3.63351523      -0.85108591
H       -2.62445634      -5.05708689      -2.25008942
H       -4.89428066      -3.70647375      -4.55932072
H       -2.60567108      -0.12246661      -2.87517806
H       -2.81310922      -0.00871496      -5.11198347
H       -1.34793088       2.97448162      -8.06994342
H       -2.84974478       4.24179693     -10.01060077
H       -5.16117137       4.41860828     -10.90805836
H       -6.55442429       1.46997357      -8.04536198
C       -1.79216014       1.79216014       1.79216014
C       -3.17748649       1.75688526       1.63537755
C       -3.98655753       2.54116086       2.45793458
C       -3.40632503       3.35519571       3.42871869
O       -4.26713714       4.07153993       4.21721894
C       -2.01164980       3.41985431       3.56625609
C       -1.20151677       2.61779398       2.75036759
C       -1.42028876       4.31705276       4.59237012
O       -2.07428940       4.55494083       5.60450123
N       -0.19339668       4.86983561       4.27180902
N        0.43787429       5.69680693       5.15911633
C        1.44638884       6.36789551       4.70126853
C        1.99646430       6.39470685       3.27234900
O        1.57594209       5.71584886       2.35914500
N        3.02280725       7.31292280       3.28703371
C        3.19593866       7.83284562       4.56755975
C        4.13635492       8.75452613       4.97457468
C        4.13741258       9.11352408       6.32862871
C        3.20718173       8.55014451       7.22826929
Br       3.26320139       9.05646111       9.05045007
C        2.25323583       7.62482913       6.80350401
C        2.27611154       7.29011784       5.46586456
H       -3.63736242       1.11648672       0.88705084
H       -5.06800447       2.51147717       2.35215100
H       -3.75066366       4.43698735       4.97242412
H       -0.12209578       2.60950857       2.87171140
H        0.18246844       4.79154479       3.32473129
H        3.57318471       7.54352883       2.47304855
H        4.85414168       9.18651158       4.28617872
H        4.87025638       9.83499073       6.68588712
H        1.53047505       7.18051562       7.47977213
C        1.79216014      -1.79216014       1.79216014
C        3.17092697      -1.58375761       1.81506472
C        3.97539265      -2.37007295       2.64018737
C        3.39743048      -3.35872334       3.43408561
O        4.24818160      -4.06804900       4.23966540
C        2.01526715      -3.59472270       3.38777035
C        1.20678520      -2.79182731       2.57106582
C        1.43060212      -4.67353067       4.22557886
O        1.99266517      -4.96216229       5.27890400
N        0.32592299      -5.31471999       3.69439833
N       -0.29145732      -6.31133940       4.39816688
C       -1.15076232      -7.02769083       3.74584669
C       -1.53087929      -6.93625348       2.26521737
O       -1.09983704      -6.10583657       1.49305223
N       -2.42932492      -7.95742156       2.04905261
C       -2.67721114      -8.64966734       3.23201050
C       -3.53411876      -9.71385055       3.41301409
C       -3.64069507     -10.23752929       4.70790599
C       -2.89418139      -9.69141423       5.77399924
Br      -3.08852162     -10.42508627       7.50714513
C       -2.02241758      -8.61991988       5.57759502
C       -1.93821854      -8.12490144       4.29318795
H        3.62725847      -0.80753822       1.20610329
H        5.04960399      -2.20734910       2.67467955
H        3.70084191      -4.58035364       4.87887958
H        0.12808490      -2.91884254       2.55638831
H        0.05083004      -5.16066532       2.72231228
H       -2.85256086      -8.14397204       1.15198149
H       -4.11113058     -10.13327784       2.59640136
H       -4.31251401     -11.07502069       4.88811478
H       -1.44069838      -8.18626642       6.38424467
C       -0.00445707       0.01189536      -1.78238275
H       -0.66409135       0.67374010      -2.43557963
H        0.65740317      -0.63156657      -2.45157240
C       -0.90989263      -0.90692880      -0.91072765
C        0.90977584       0.90977584      -0.90977584
C       -0.00465871       1.77757030       0.00794375
H       -0.66225468       2.44313916      -0.64384735
H        0.64322798       2.43503045       0.67728295
C       -1.78241447       0.00034974      -0.00472694
H       -2.45427497      -0.65498947       0.64260836
H       -2.43311707       0.67328779      -0.65473579
C       -0.91132561       0.90220522       0.91563759
C       -0.01476271      -0.02253852       1.78660255
H       -0.67934791      -0.69751639       2.42135241
H        0.63392994       0.61504881       2.47327442
C        0.01484550      -1.77751727      -0.01636693
H        0.67870853      -2.42144646      -0.68295456
H       -0.62264859      -2.45592969       0.64226336
C        1.78714474       0.01002794       0.00389507
H        2.44202412       0.67113390       0.66197326
H        2.45385902      -0.65136977      -0.64189061
C        0.91606151      -0.90478549       0.90901405
