154
Properties=species:S:1:pos:R:3 pbc="F F F"
C        1.79216014       1.79216014      -1.79216014
C        1.34197923       3.05650662      -2.17126344
C        2.15691993       3.87451911      -2.95421394
C        3.41334792       3.42328127      -3.35361024
O        4.16679142       4.29491093      -4.09419365
C        3.85549112       2.13867443      -3.00359465
C        3.04216657       1.32525694      -2.20225483
C        5.18894044       1.67451707      -3.46625414
O        6.06511484       2.51463165      -3.65398498
N        5.29927786       0.31861508      -3.71714837
N        6.49173443      -0.20608633      -4.13240086
C        6.45937433      -1.41971510      -4.58311596
C        5.24255537      -2.33241298      -4.76044917
O        4.11096112      -2.04390132      -4.43199197
N        5.72492770      -3.48584087      -5.33806243
C        7.10527617      -3.40808611      -5.50727664
C        7.93849521      -4.37429631      -6.02854699
C        9.30735785      -4.08089380      -6.07827615
C        9.80027304      -2.84266453      -5.61362356
C        8.94653977      -1.86784644      -5.09640399
C        7.60479156      -2.18435779      -5.05943709
H        0.36726511       3.41890155      -1.85473332
H        1.82048369       4.86652198      -3.24462697
H        5.08472754       3.93953419      -4.13581340
H        3.38238549       0.34745415      -1.87347611
H        4.46888798      -0.27654993      -3.74146960
H        5.14088100      -4.27375785      -5.57626952
H        7.56283312      -5.32757998      -6.38329547
H        9.99515317      -4.82355562      -6.47902391
H        9.30639683      -0.91060257      -4.73401845
C       11.21590003      -2.58488735      -5.66975884
C       12.40148763      -2.36899897      -5.71677213
Br      14.31848250      -2.01992571      -5.79278865
C       -1.79216014      -1.79216014      -1.79216014
C       -1.88987102      -3.15703250      -1.52284578
C       -2.71577126      -3.95970143      -2.31018029
C       -3.43575980      -3.39393380      -3.36054583
O       -4.24784234      -4.24002079      -4.06803287
C       -3.31327758      -2.02804193      -3.65644069
C       -2.49633774      -1.22019745      -2.85314314
C       -4.07268038      -1.45787467      -4.79915659
O       -5.13733187      -1.98471424      -5.11168535
N       -3.46119059      -0.41005457      -5.46379615
N       -4.08901239       0.19058604      -6.51962261
C       -3.36488151       0.98450763      -7.24240131
C       -1.87354728       1.30108337      -7.09812764
O       -1.16110757       0.87539610      -6.21334030
N       -1.56896969       2.13935349      -8.14753306
C       -2.70626554       2.40744050      -8.90564167
C       -2.79802352       3.22020980     -10.01493217
C       -4.06135164       3.36035875     -10.60374732
C       -5.18530263       2.68964926     -10.07557871
C       -5.07921319       1.86170513      -8.95758925
C       -3.82398753       1.74300032      -8.39888364
H       -1.33902869      -3.60313415      -0.69873714
H       -2.80852603      -5.02231661      -2.10079000
H       -4.83650759      -3.68921510      -4.63435244
H       -2.42475930      -0.15051131      -3.02804515
H       -2.48512347      -0.17227272      -5.27641146
H       -0.64530044       2.51219662      -8.31028886
H       -1.93679587       3.73909277     -10.42084552
H       -4.17136557       3.99915753     -11.47841342
H       -5.93136689       1.33834863      -8.53679444
C       -6.46921817       2.87048974     -10.70204309
C       -7.54449743       3.02194365     -11.22670701
Br      -9.28313305       3.26683180     -12.07504419
C       -1.79216014       1.79216014       1.79216014
C       -3.17997456       1.69571076       1.69406398
C       -3.98749149       2.48058203       2.51757946
C       -3.40333450       3.35620106       3.43070388
O       -4.26105792       4.06980367       4.22503442
C       -2.00815719       3.48156356       3.50803946
C       -1.19858410       2.67925310       2.69184114
C       -1.41412598       4.44292863       4.47265703
O       -2.03683384       4.69624000       5.50065763
N       -0.22466867       5.03012453       4.08024811
N        0.40661021       5.91724018       4.90741899
C        1.36774682       6.60826175       4.38226026
C        1.85932068       6.59794907       2.93196317
O        1.43132490       5.86597222       2.06440444
N        2.84676638       7.55585487       2.86806076
C        3.04884261       8.13449686       4.11881246
C        3.96587217       9.10861678       4.45000127
C        4.00568812       9.52281961       5.78760871
C        3.13574190       8.96061611       6.74635787
C        2.20465255       7.98160146       6.39814841
C        2.18838008       7.59326784       5.07498309
H       -3.64232393       1.00736282       0.99121323
H       -5.07013565       2.40383010       2.45766689
H       -3.73061114       4.48616994       4.94329404
H       -0.11578407       2.71865839       2.76887330
H        0.11635861       4.92783080       3.12233546
H        3.35456628       7.77433429       2.02362466
H        4.63748320       9.53993745       3.71609436
H        4.72175938      10.28679600       6.08558484
H        1.52810363       7.53727683       7.12063950
C        3.21727890       9.40411927       8.11393115
C        3.28556614       9.77555316       9.25927376
Br       3.39598082      10.37613035      11.11119591
C        1.79216014      -1.79216014       1.79216014
C        3.12108678      -1.43303531       2.01562721
C        3.92087110      -2.22227483       2.84250705
C        3.38828812      -3.36400863       3.43794268
O        4.22599802      -4.06962629       4.26027169
C        2.06222393      -3.74769823       3.18783804
C        1.25539486      -2.94366315       2.37062032
C        1.52963283      -4.98465804       3.81542078
O        2.00069921      -5.34048559       4.89254666
N        0.58414088      -5.67366123       3.07723920
N        0.02399587      -6.81614339       3.57790971
C       -0.65632835      -7.53572664       2.74337691
C       -0.87422083      -7.29856234       1.24625005
O       -0.46851227      -6.33221217       0.63535187
N       -1.60351628      -8.37894860       0.80171693
C       -1.89324877      -9.24115114       1.85656433
C       -2.62124934     -10.41023856       1.80375667
C       -2.80615948     -11.10469479       3.00620490
C       -2.26211714     -10.61882735       4.21452187
C       -1.51866946      -9.43886879       4.25489798
C       -1.35331312      -8.77653948       3.05664449
H        3.54012004      -0.53817953       1.56260041
H        4.95431311      -1.94426654       3.03305299
H        3.67994687      -4.71871724       4.76141103
H        0.21068816      -3.18954956       2.20307803
H        0.40384841      -5.42822912       2.10173012
H       -1.89450632      -8.49555390      -0.15765491
H       -3.04295113     -10.78409090       0.87740886
H       -3.38086229     -12.02930724       3.00217651
H       -1.09302580      -9.04918557       5.17365294
C       -2.48603427     -11.35527990       5.43152589
C       -2.67356486     -11.97205890       6.45076675
Br      -2.97678597     -12.96933840       8.09879301
C       -0.00445707       0.01189536      -1.78238275
H       -0.66409135       0.67374010      -2.43557963
H        0.65740317      -0.63156657      -2.45157240
C       -0.90989263      -0.90692880      -0.91072765
C        0.90977584       0.90977584      -0.90977584
C       -0.00465871       1.77757030       0.00794375
H       -0.66225468       2.44313916      -0.64384735
H        0.64322798       2.43503045       0.67728295
C       -1.78241447       0.00034974      -0.00472694
H       -2.45427497      -0.65498947       0.64260836
H       -2.43311707       0.67328779      -0.65473579
C       -0.91132561       0.90220522       0.91563759
C       -0.01476271      -0.02253852       1.78660255
H       -0.67934791      -0.69751639       2.42135241
H        0.63392994       0.61504881       2.47327442
C        0.01484550      -1.77751727      -0.01636693
H        0.67870853      -2.42144646      -0.68295456
H       -0.62264859      -2.45592969       0.64226336
C        1.78714474       0.01002794       0.00389507
H        2.44202412       0.67113390       0.66197326
H        2.45385902      -0.65136977      -0.64189061
C        0.91606151      -0.90478549       0.90901405
