189
Properties=species:S:1:pos:R:3 pbc="F F F"
C        0.00000000       0.00000000       0.00000000
C        0.88118275       0.88118275      -0.88118275
C        0.35343699       2.02764274      -1.46371161
C        1.16449949       2.82809511      -2.27607647
C        2.51199910       2.50139123      -2.52813293
C        3.01761482       1.34116856      -1.91020377
C        2.21115546       0.53498258      -1.09710942
C        3.33828725       3.35086266      -3.41618381
N        2.99218839       4.66209602      -3.46249068
C        3.67992154       5.50309413      -4.27471734
C        4.72717462       5.04870609      -5.06950120
C        5.09138790       3.70156854      -5.03061618
C        4.38700579       2.84875948      -4.18101289
C        6.18963246       3.19825740      -5.85123392
C        7.32368755       3.94434854      -6.11547834
N        8.16192435       3.19863032      -6.89983161
C        9.43523257       3.65715198      -7.41033383
C        7.61742082       1.95625429      -7.13590437
C        8.11851268       0.85859247      -7.85692267
C        7.32989227      -0.29071133      -7.94158610
C        6.07614554      -0.34030969      -7.34386416
C        5.58349858       0.76116122      -6.63503604
C        6.36725254       1.93085733      -6.50636849
C        3.25833641       6.92136112      -4.23551899
C        2.70876478       7.47356952      -3.06167390
C        2.32612307       8.81760154      -2.99044181
C        2.48315771       9.63691814      -4.10305350
Br       1.97618060      11.45523843      -4.01367622
C        3.01009867       9.12249134      -5.28321744
C        3.38981839       7.77633822      -5.34726610
H       -0.68252680       2.31121831      -1.29880283
H        0.73201526       3.72061365      -2.72785839
H        4.05780623       1.05074886      -2.04070491
H        2.63402573      -0.35500643      -0.63818306
H        5.26800021       5.73842989      -5.70825249
H        4.65405710       1.80058370      -4.12113616
H        7.60497587       4.94204497      -5.80458451
H        9.60862050       4.68737947      -7.09083312
H        9.40538383       3.61115708      -8.50186111
H       10.21995560       3.00844007      -7.01509766
H        9.09154229       0.89246863      -8.33632851
H        7.69987563      -1.15456678      -8.49025313
H        5.47208522      -1.23853941      -7.42825117
H        4.59386899       0.70489400      -6.19263018
H        2.58168523       6.84682819      -2.17888960
H        1.91029316       9.20677859      -2.06522818
H        3.12705165       9.75401635      -6.16005864
H        3.77832126       7.40156061      -6.29164769
C       -0.88118275      -0.88118275      -0.88118275
C       -0.32593733      -1.96104863      -1.55780537
C       -1.13766060      -2.76146345      -2.36954703
C       -2.51352502      -2.50053623      -2.52746201
C       -3.04540503      -1.40761207      -1.81597005
C       -2.23854351      -0.60179090      -1.00291305
C       -3.34213874      -3.34652879      -3.41666618
N       -2.92758878      -4.63078812      -3.55839819
C       -3.61413778      -5.46443031      -4.37916492
C       -4.72942507      -5.02880138      -5.08715546
C       -5.16444289      -3.70940144      -4.94972829
C       -4.45976900      -2.86507512      -4.09193404
C       -6.33476076      -3.22655830      -5.67780471
C       -7.43945272      -4.02184097      -5.92222073
N       -8.36184625      -3.28420227      -6.61433776
C       -9.63555866      -3.78739474      -7.07976498
C       -7.90134614      -2.00105571      -6.80717762
C       -8.50338480      -0.89643000      -7.43421301
C       -7.78559216       0.29984168      -7.49501655
C       -6.50375165       0.38948161      -6.96542997
C       -5.91063189      -0.71876173      -6.35030222
C       -6.61988259      -1.93750133      -6.24709444
C       -3.11345737      -6.85568667      -4.44607248
C       -2.46673971      -7.43874792      -3.33852057
C       -2.00709968      -8.76004637      -3.36702037
C       -2.18338201      -9.52455946      -4.51518787
Br      -1.57260848     -11.31236234      -4.56012443
C       -2.80582832      -8.97748935      -5.63248977
C       -3.26225359      -7.65430211      -5.59686701
H        0.73193492      -2.19235890      -1.46707035
H       -0.68373754      -3.60097093      -2.89577883
H       -4.10586109      -1.17162278      -1.87177613
H       -2.68232738       0.23536233      -0.47023731
H       -5.26775719      -5.71264763      -5.73427778
H       -4.78023620      -1.83916093      -3.95637983
H       -7.64670720      -5.04986471      -5.65503345
H       -9.73296571      -4.84202391      -6.81184346
H       -9.67202240      -3.67964681      -8.16673281
H      -10.43044566      -3.20834094      -6.60470673
H       -9.49937758      -0.96054208      -7.86041976
H       -8.23400373       1.16956510      -7.97112334
H       -5.95606955       1.32470644      -7.03043387
H       -4.90148540      -0.62932309      -5.96058468
H       -2.32311040      -6.85526946      -2.42902317
H       -1.51718333      -9.17470143      -2.49041516
H       -2.93875334      -9.56547283      -6.53690047
H       -3.72525571      -7.25134928      -6.49492457
C       -0.88118275       0.88118275       0.88118275
C       -2.05591820       0.36914081       1.41973233
C       -2.86315001       1.18396853       2.22155254
C       -2.52054641       2.52263763       2.49833922
C       -1.31648486       3.00390581       1.94859647
C       -0.50461526       2.19428985       1.14434234
C       -3.40912076       3.37064305       3.32556991
N       -4.15861682       2.71256259       4.24559569
C       -5.02127483       3.41232536       5.02413282
C       -5.16186958       4.79002416       4.89348817
C       -4.39652873       5.47735976       3.94968412
C       -3.50216668       4.74989967       3.16471181
C       -4.52081301       6.92416267       3.79414810
C       -4.74919482       7.77068872       4.86363089
N       -4.80834390       9.05593837       4.39610401
C       -5.06745379      10.21849588       5.21676871
C       -4.59179032       9.08116331       3.03662584
C       -4.53543172      10.16058145       2.13801464
C       -4.30840458       9.88418152       0.78818094
C       -4.16020561       8.57567329       0.34382110
C       -4.22598600       7.50781727       1.24589257
C       -4.42719285       7.75368486       2.62360065
C       -5.77151693       2.61972788       6.02397172
C       -5.21163152       1.45251379       6.57986289
C       -5.88913096       0.69968854       7.54534692
C       -7.15055064       1.10226148       7.97031723
Br      -8.06977740       0.09593951       9.27937834
C       -7.73996341       2.24226062       7.43358341
C       -7.05635699       2.98995016       6.46711556
H       -2.35842686      -0.65630779       1.22537526
H       -3.78269516       0.76649452       2.63129763
H       -0.98083100       4.01897476       2.14945424
H        0.41685482       2.59967594       0.73438125
H       -5.85342517       5.33186710       5.52939033
H       -2.88682135       5.25733939       2.43161622
H       -4.86833998       7.56404107       5.91922430
H       -5.22664587       9.90812205       6.25206516
H       -5.96591668      10.71318673       4.83929861
H       -4.20313437      10.88347330       5.15688567
H       -4.66125638      11.18467806       2.47440498
H       -4.25564860      10.70463900       0.07527437
H       -3.99431888       8.37834676      -0.71086866
H       -4.12560683       6.49368847       0.87209787
H       -4.22233174       1.12407398       6.26099730
H       -5.42131691      -0.19210310       7.95308611
H       -8.72953827       2.55806983       7.75351854
H       -7.55498347       3.86353032       6.05301576
C        0.88118275      -0.88118275       0.88118275
C        2.17534412      -0.47901628       1.19043094
C        2.98085645      -1.29438088       1.99343375
C        2.51711507      -2.52536788       2.49904032
C        1.19639700      -2.89452654       2.17806360
C        0.38533380      -2.08392045       1.37399320
C        3.40198792      -3.38175519       3.32159061
N        4.35128755      -2.72793151       4.03755603
C        5.22224011      -3.44113265       4.79436025
C        5.16990184      -4.83021819       4.84526188
C        4.19800295      -5.51346845       4.11210123
C        3.29845472      -4.76934757       3.34897587
C        4.11748204      -6.97117950       4.15046224
C        4.38890129      -7.70165705       5.29295608
N        4.22001852      -9.03033332       5.01003445
C        4.44668976     -10.10651670       5.94951192
C        3.81014380      -9.19364256       3.70579311
C        3.49195526     -10.35746147       2.98461109
C        3.11077168     -10.22191546       1.64807989
C        3.06492154      -8.97135556       1.04342290
C        3.39141391      -7.81980309       1.76847884
C        3.75503091      -7.91820907       3.13123838
C        6.20043541      -2.64538792       5.56939319
C        5.87556124      -1.35009946       6.01834750
C        6.77246968      -0.58730245       6.77439429
C        8.02151987      -1.10970699       7.09190248
Br       9.23642761      -0.08969394       8.11897370
C        8.38151380      -2.38010163       6.65419200
C        7.47910878      -3.13710672       5.89720722
H        2.57244310       0.46042716       0.81547839
H        3.99427476      -0.96468856       2.22152398
H        0.76897559      -3.81823578       2.56204863
H       -0.62849863      -2.40149604       1.14420496
H        5.87217324      -5.38171205       5.46079730
H        2.52634105      -5.27111357       2.77832234
H        4.68236001      -7.38418543       6.28505991
H        4.78950116      -9.69544683       6.90188510
H        5.21330953     -10.76757263       5.53751986
H        3.50659681     -10.64350051       6.09339601
H        3.53587329     -11.33902892       3.44543721
H        2.85491450     -11.10883368       1.07181379
H        2.77605330      -8.88538913       0.00035455
H        3.36589717      -6.85631830       1.26917770
H        4.89960708      -0.92611070       5.78168525
H        6.48251363       0.40594286       7.10572915
H        9.35946518      -2.79159470       6.89006676
H        7.80068070      -4.11766281       5.55318605
