185
Properties=species:S:1:pos:R:3 pbc="F F F"
C        0.00000000       0.00000000       0.00000000
C        0.88130676       0.88130676      -0.88130676
C        1.74603697       1.80096721      -0.29628053
C        2.54245607       2.62053452      -1.10492207
C        2.48816396       2.53460509      -2.50559610
C        1.61237587       1.58949129      -3.06652727
C        0.81315036       0.76812985      -2.26539055
N        3.23379517       3.36354439      -3.36789904
C        4.32395613       2.64416140      -4.04257387
N        4.79172716       3.40416308      -5.21343505
C        5.26937220       4.75370966      -4.94667925
P        3.75859127       5.59635679      -4.39456388
C        3.58242272       4.67342040      -2.84096660
C        4.44616014       7.19342006      -3.85611847
C        3.96500044       8.36120546      -4.46642476
C        4.48639585       9.61376065      -4.13075572
C        5.49557482       9.71657003      -3.17770670
C        5.98095716       8.56901652      -2.55758269
C        5.46029108       7.31676089      -2.89470395
C        5.64967826       2.63034916      -6.03210724
C        5.10805222       1.57743628      -6.78736819
C        5.90678085       0.79396139      -7.62580240
C        7.27060959       1.05630029      -7.72406046
C        7.83584402       2.09189084      -6.99074170
C        7.03030120       2.87094482      -6.15223009
H        1.80363276       1.89730963       0.78442031
H        3.20722857       3.32278525      -0.61116755
H        1.52377330       1.51739459      -4.14851647
H        0.13426066       0.06084708      -2.73392064
H        3.97369209       1.65470258      -4.36161210
H        5.15582448       2.47824716      -3.34191409
H        6.07132985       4.76009557      -4.20006879
H        5.62297393       5.24386639      -5.86085801
H        4.48299775       4.62917764      -2.21915981
H        2.76663860       5.11776427      -2.25799976
H        3.18103549       8.30707747      -5.22071683
H        4.10538720      10.50606853      -4.61958846
H        5.90463581      10.69039234      -2.92045621
H        6.77039622       8.64675957      -1.81485167
H        5.87760523       6.44619670      -2.39681061
H        4.03858807       1.38111856      -6.74840027
H        5.45317882      -0.00701955      -8.20434740
H        8.89856270       2.30899706      -7.06222981
H        7.51759273       3.66343913      -5.59338349
C        8.09826681       0.25793299      -8.59077447
C        8.79142973      -0.41069963      -9.31664745
Br       9.91221554      -1.49182203     -10.49032267
C       -0.88130676      -0.88130676      -0.88130676
C       -0.93760695      -2.25262689      -0.65305088
C       -1.73328409      -3.06306392      -1.47156466
C       -2.48280825      -2.51855656      -2.52700034
C       -2.41294610      -1.12920108      -2.72624724
C       -1.61976335      -0.31344130      -1.91346611
N       -3.26541886      -3.29137184      -3.40844790
C       -4.70813443      -3.11288820      -3.18966877
N       -5.46590587      -3.58196785      -4.36145156
C       -5.25839665      -4.97323934      -4.73812511
P       -3.51727966      -4.97852177      -5.25371051
C       -2.82874590      -4.66481387      -3.60324995
C       -3.24493942      -6.76299192      -5.48776734
C       -2.83137970      -7.20971080      -6.75154016
C       -2.65121142      -8.57177876      -7.00792205
C       -2.88010068      -9.50697842      -6.00277246
C       -3.28509969      -9.08137667      -4.74108001
C       -3.46652920      -7.71947377      -4.48575295
C       -6.82473011      -3.18856069      -4.29884385
C       -7.15421512      -1.83579142      -4.48285015
C       -8.48103945      -1.39626950      -4.44923568
C       -9.50706241      -2.31199488      -4.23191306
C       -9.21337809      -3.65720179      -4.04789668
C       -7.88264846      -4.08960696      -4.08122069
H       -0.36185534      -2.70458420       0.14991746
H       -1.75407943      -4.12769085      -1.25941109
H       -2.95762267      -0.67869731      -3.55336438
H       -1.57588377       0.75471043      -2.10785504
H       -4.92757265      -2.05328521      -3.00914891
H       -5.02337576      -3.66243111      -2.29017887
H       -5.47025318      -5.65463394      -3.90660708
H       -5.87408643      -5.25318263      -5.60042928
H       -3.20127563      -5.32084122      -2.80921834
H       -1.73661921      -4.75057750      -3.65520593
H       -2.65293170      -6.49869253      -7.55720556
H       -2.33713791      -8.89863295      -7.99527333
H       -2.74491576     -10.56676645      -6.20380214
H       -3.46653564      -9.80997232      -3.95549950
H       -3.79682180      -7.43216672      -3.49162402
H       -6.36741153      -1.11280394      -4.68789143
H       -8.70166768      -0.34322257      -4.60561642
H      -10.00604263      -4.38220277      -3.88154417
H       -7.70157739      -5.14815296      -3.92468499
C      -10.87648777      -1.86766639      -4.20282011
C      -12.02338150      -1.49554128      -4.17845476
Br     -13.87781166      -0.89384646      -4.13905806
C       -0.88130676       0.88130676       0.88130676
C       -1.12706106       0.51528680       2.20093685
C       -1.94847787       1.31508364       3.00435115
C       -2.53506393       2.48900193       2.50429929
C       -2.26021254       2.83730948       1.17087241
C       -1.44156699       2.04304396       0.36205981
N       -3.40399915       3.30767741       3.25356205
C       -2.78771507       4.58612721       3.63684913
N       -3.82279096       5.55626438       4.03026994
C       -4.68938225       5.15189149       5.12848737
P       -5.58981299       3.74664039       4.41305856
C       -4.15625773       2.63793210       4.30261989
C       -6.47690776       3.13759865       5.88119226
C       -7.87772492       3.08202325       5.83288250
C       -8.61848855       2.66873726       6.94368640
C       -7.96833897       2.30279245       8.11872015
C       -6.57871528       2.34608371       8.18275737
C       -5.83865254       2.76083197       7.07227140
C       -3.29578656       6.86496201       4.15138609
C       -2.92072403       7.56128940       2.99084326
C       -2.41224463       8.86224040       3.05205961
C       -2.27284244       9.49237214       4.28575576
C       -2.63646119       8.83038911       5.45162626
C       -3.14322138       7.52755800       5.38269673
H       -0.69498787      -0.39215920       2.61369341
H       -2.11323934       0.99824319       4.02969884
H       -2.72237779       3.72442582       0.74288076
H       -1.26520421       2.33376981      -0.66994563
H       -2.20899744       4.98599696       2.79501237
H       -2.08077745       4.42992829       4.46528000
H       -4.11456967       4.89241034       6.02451419
H       -5.41450891       5.93461718       5.37857226
H       -3.56704973       2.54324085       5.22104462
H       -4.50288117       1.64368182       3.99583965
H       -8.41073419       3.37034305       4.92775255
H       -9.70313326       2.63899203       6.88891890
H       -8.54487208       1.98628691       8.98432537
H       -6.06916893       2.06296015       9.09987838
H       -4.75730578       2.79319535       7.17011142
H       -3.05537957       7.09627944       2.01644790
H       -2.14107867       9.37623581       2.13319219
H       -2.53613638       9.31338567       6.42026753
H       -3.40632806       7.04803256       6.32005472
C       -1.75628493      10.83469667       4.35599266
C       -1.32366802      11.95889345       4.41481607
Br      -0.62416307      13.77662458       4.50992854
C        0.88130676      -0.88130676       0.88130676
C        1.11086866      -0.52572239       2.20669367
C        1.93224884      -1.32534723       3.01031659
C        2.53491323      -2.48870886       2.50474306
C        2.27621782      -2.82672764       1.16544897
C        1.45771377      -2.03255490       0.35640209
N        3.40450825      -3.30623235       3.25449800
C        2.79696838      -4.59416766       3.61955536
N        3.83755885      -5.55810927       4.01365716
C        4.68964908      -5.15609263       5.12401939
P        5.58326320      -3.73543763       4.43081111
C        4.14018211      -2.63948717       4.31714044
C        6.45033589      -3.13215005       5.91321274
C        7.85094874      -3.06270363       5.87897830
C        8.57701633      -2.65310085       7.00079504
C        7.91214210      -2.30477009       8.17293937
C        6.52245241      -2.36197836       8.22312560
C        5.79709674      -2.77303964       7.10161954
C        3.32209236      -6.87290111       4.11714118
C        2.96490375      -7.56153772       2.94641521
C        2.46845907      -8.86782740       2.99025817
C        2.32335049      -9.51115890       4.21646096
C        2.66937732      -8.85702450       5.39207474
C        3.16415862      -7.54879680       5.34052069
H        0.66611392       0.37351437       2.62392253
H        2.08411773      -1.01686889       4.04019476
H        2.75101118      -3.70520132       0.73347186
H        1.29405598      -2.31496777      -0.67999537
H        2.23022746      -4.99140384       2.76837547
H        2.08065641      -4.45275708       4.44257225
H        4.10380464      -4.91079793       6.01689163
H        5.41987974      -5.93422173       5.37359687
H        3.54132187      -2.55932140       5.23069193
H        4.48010072      -1.63904583       4.02325609
H        8.39535960      -3.33714649       4.97632369
H        9.66179744      -2.61244635       6.95680040
H        8.47727689      -1.99114105       9.04706641
H        6.00143773      -2.09262255       9.13794718
H        4.71522625      -2.81669678       7.18868952
H        3.10437987      -7.08586430       1.97786273
H        2.21108175      -9.37549015       2.06393477
H        2.56445767      -9.35029862       6.35503329
H        3.41363354      -7.07585670       6.28492510
C        1.81914197     -10.85898278       4.26884951
C        1.39686733     -11.98778528       4.31272493
Br       0.71408496     -13.81296345       4.38366777
