165
Properties=species:S:1:pos:R:3 pbc="F F F"
C        0.00000000       0.00000000       0.00000000
C        0.88187021       0.88187021      -0.88187021
C        0.41224227       1.30624540      -2.12413755
C        1.21940438       2.11291317      -2.93047753
C        2.49372022       2.49517018      -2.49436064
C        2.95540716       2.06186512      -1.24491150
C        2.14962433       1.25478191      -0.43810968
C        3.34172325       3.34239158      -3.33903008
C        3.29900157       4.68140364      -3.23088771
C        4.20281890       5.55096973      -4.08708068
H        3.55805572       6.21613672      -4.67716490
C        5.14849836       6.37401120      -3.21881826
C        5.06272272       7.77668127      -3.21259854
C        5.92936489       8.53927026      -2.42555558
C        6.88083576       7.90539545      -1.62948069
Br       8.05196105       8.93920353      -0.56469982
C        6.97556837       6.51672564      -1.61253940
C        6.11455911       5.75455021      -2.40468490
N        4.95148694       4.77173679      -5.08323233
C        4.93454078       3.39665583      -5.12529339
N        4.17829579       2.72368089      -4.23765468
N        5.68401587       2.93251932      -6.09309530
C        6.16772156       4.04869575      -6.73551889
C        7.00557060       4.13280444      -7.85787318
C        7.35135687       5.39676379      -8.35068820
C        6.87251837       6.55615905      -7.73876937
C        6.03898550       6.49514256      -6.61600724
C        5.70833950       5.22238854      -6.13668151
H       -0.57462502       1.01529917      -2.47358357
H        0.85088973       2.43890303      -3.90109065
H        3.94543195       2.34846604      -0.89655094
H        2.51945827       0.92360051       0.52862752
H        2.63654827       5.17296657      -2.52551323
H        4.32599450       8.28962615      -3.82825668
H        5.85608502       9.62351109      -2.44164435
H        7.71596818       6.01744922      -0.99285716
H        6.20587761       4.66929159      -2.38609762
H        4.13178939       1.71152855      -4.30060183
H        7.37038858       3.22766960      -8.33071634
H        7.99945919       5.47267363      -9.22042063
H        7.15546017       7.52740379      -8.14006491
H        5.67811824       7.40210305      -6.14533548
C       -0.88187021      -0.88187021      -0.88187021
C       -1.94444386      -1.58382406      -0.31435731
C       -2.75081560      -2.39044275      -1.12153672
C       -2.49522917      -2.49382852      -2.49419334
C       -1.42423193      -1.78486306      -3.05308879
C       -0.61689263      -0.97861010      -2.24701318
C       -3.34105323      -3.33926635      -3.34282532
C       -4.42751881      -2.83292892      -3.95084519
C       -5.28084198      -3.70692808      -4.85309924
H       -6.29919598      -3.71053291      -4.44162845
C       -5.29475679      -3.16724189      -6.27932915
C       -6.49393253      -2.70789866      -6.85017135
C       -6.51763012      -2.21811053      -8.15845008
C       -5.34066897      -2.17260302      -8.90243991
Br      -5.37489741      -1.50873591     -10.67223107
C       -4.14000438      -2.61246884      -8.35236019
C       -4.11731904      -3.10898893      -7.04748625
N       -4.86090330      -5.11517562      -4.83037714
C       -3.73163543      -5.54948430      -4.17537027
N       -2.98520146      -4.65838585      -3.49604406
N       -3.56282535      -6.84110905      -4.30569609
C       -4.64961244      -7.27086283      -5.03146093
C       -4.98518454      -8.57033938      -5.44072429
C       -6.16837514      -8.76785327      -6.16258045
C       -7.00297422      -7.69276560      -6.47170698
C       -6.68531009      -6.38808822      -6.07673700
C       -5.49642726      -6.21140995      -5.35957233
H       -2.15199118      -1.51207333       0.74980679
H       -3.57681336      -2.93982464      -0.67424542
H       -1.21260146      -1.86025257      -4.11759489
H        0.21207925      -0.43461816      -2.69189234
H       -4.71351085      -1.79309596      -3.82842126
H       -7.42348415      -2.73596213      -6.28443105
H       -7.45618574      -1.87738700      -8.58766771
H       -3.21899374      -2.57866413      -8.92861669
H       -3.17143183      -3.45616047      -6.63367452
H       -2.17866832      -4.98934780      -2.97590365
H       -4.33405214      -9.40144590      -5.19327648
H       -6.43776276      -9.77113514      -6.48365555
H       -7.91738824      -7.87137963      -7.03416100
H       -7.33779751      -5.56006844      -6.32769083
C       -0.88187021       0.88187021       0.88187021
C       -0.95775303       2.25164757       0.63322462
C       -1.76459091       3.05791177       1.44029239
C       -2.49499250       2.49465802       2.49360051
C       -2.41008401       1.11744533       2.73465444
C       -1.60324082       0.31039565       1.92887945
C       -3.34285184       3.33929388       3.34099918
C       -4.63513763       3.54320187       3.03295341
C       -5.51479646       4.39374793       3.93232492
H       -5.90038119       5.22467008       3.32630606
C       -6.67213279       3.57495910       4.49423594
C       -7.99724889       3.89852725       4.15622640
C       -9.06427005       3.15832174       4.67159894
C       -8.81467327       2.08150415       5.51953448
Br     -10.25995352       1.08080543       6.21510543
C       -7.50917056       1.73726587       5.85839698
C       -6.44288052       2.48142815       5.34948554
N       -4.75545757       5.03741158       5.01358691
C       -3.42726569       4.77297645       5.25624785
N       -2.77459760       3.90954826       4.45548550
N       -2.97498492       5.45987481       6.27477077
C       -4.03554478       6.23713476       6.67925666
C       -4.10000102       7.17871291       7.71753429
C       -5.29834872       7.87080929       7.92965086
C       -6.41241545       7.63122294       7.12380841
C       -6.37111221       6.69363996       6.08538313
C       -5.16528438       6.00974548       5.89237968
H       -0.39485441       2.70019384      -0.18079053
H       -1.81817784       4.12718872       1.24551686
H       -2.96933141       0.66839302       3.55272449
H       -1.54427462      -0.75657112       2.12672776
H       -5.08554914       3.09795318       2.15152576
H       -8.21184235       4.73655139       3.49548359
H      -10.08321018       3.42971068       4.40831959
H       -7.30921782       0.89778159       6.51927515
H       -5.42745667       2.20414618       5.62966397
H       -1.78353783       3.75171146       4.60867047
H       -3.22912265       7.36271911       8.33693276
H       -5.35831433       8.60306813       8.73117100
H       -7.33299899       8.18156359       7.30836629
H       -7.24422916       6.51140496       5.46992265
C        0.88187021      -0.88187021       0.88187021
C        0.99953080      -0.60071645       2.24237798
C        1.80643104      -1.40773569       3.04862834
C        2.49359363      -2.49468899       2.49496840
C        2.36868256      -2.76686980       1.12663143
C        1.56278863      -1.96035616       0.31937113
C        3.34015524      -3.34309746       3.33989220
C        2.83545400      -4.43332588       3.94251304
C        3.72584511      -5.32434637       4.79067784
H        3.29826011      -5.35107233       5.80202489
C        3.79323005      -6.73437197       4.21372581
C        3.28558745      -7.82247131       4.94394378
C        3.34912413      -9.11867667       4.42638993
C        3.90990949      -9.33603647       3.16976594
Br       3.99412972     -11.09067745       2.47105723
C        4.40871815      -8.27092556       2.42518970
C        4.35216667      -6.97631487       2.94531267
N        5.07384160      -4.76584546       4.96676900
C        5.50830925      -3.63694319       4.31123756
N        4.65983749      -2.98853987       3.49125400
N        6.74481882      -3.34138207       4.62342959
C        7.11236807      -4.28511441       5.55445372
C        8.32792610      -4.42769502       6.24062709
C        8.46296049      -5.46719851       7.16864987
C        7.40833714      -6.34886036       7.41024930
C        6.18888019      -6.22718178       6.73407333
C        6.07558213      -5.18405747       5.80776995
H        0.47170644       0.24059075       2.68314203
H        1.89882088      -1.18276678       4.10929576
H        2.90094675      -3.60593607       0.68356611
H        1.47503079      -2.18060787      -0.74120741
H        1.79307758      -4.71346856       3.82848194
H        2.84412115      -7.67222268       5.92753350
H        2.96166325      -9.94974814       5.00982906
H        4.84686501      -8.43528473       1.44412482
H        4.75320694      -6.15431216       2.35374772
H        4.96838934      -2.13046915       3.04506128
H        9.14154647      -3.73634887       6.05087919
H        9.40065086      -5.58574217       7.70616043
H        7.53739945      -7.14931791       8.13621152
H        5.37897135      -6.92131980       6.92526562
