194
Properties=species:S:1:pos:R:3 pbc="F F F"
C        1.79177424       1.79177424      -1.79177424
C        1.32214629       2.21614943      -3.03404158
C        2.12930840       3.02281719      -3.84038155
C        3.40362424       3.40507420      -3.40426466
C        3.86531119       2.97176914      -2.15481553
C        3.05952836       2.16468593      -1.34801370
C        4.25162727       4.25229560      -4.24893410
C        4.20890559       5.59130767      -4.14079173
C        5.11272292       6.46087376      -4.99698471
H        4.46795974       7.12604075      -5.58706892
C        6.05840239       7.28391523      -4.12872229
C        5.97262675       8.68658529      -4.12250257
C        6.83926891       9.44917428      -3.33545961
C        7.79073979       8.81529947      -2.53938471
C        7.88547239       7.42662966      -2.52244343
C        7.02446313       6.66445423      -3.31458893
N        5.86139097       5.68164081      -5.99313635
C        5.84444480       4.30655986      -6.03519741
N        5.08819981       3.63358492      -5.14755871
N        6.59391990       3.84242334      -7.00299932
C        7.07762558       4.95859978      -7.64542291
C        7.91547462       5.04270846      -8.76777720
C        8.26126090       6.30666782      -9.26059222
C        7.78242240       7.46606308      -8.64867339
C        6.94888953       7.40504659      -7.52591127
C        6.61824352       6.13229256      -7.04658553
H        0.33527900       1.92520320      -3.38348760
H        1.76079376       3.34880705      -4.81099468
H        4.85533598       3.25837006      -1.80645496
H        3.42936229       1.83350453      -0.38127650
H        3.54645230       6.08287059      -3.43541725
H        5.23589852       9.19953018      -4.73816070
H        6.76598904      10.53341511      -3.35154837
H        8.62587220       6.92735325      -1.90276118
H        7.11578163       5.57919561      -3.29600165
H        5.04169341       2.62143257      -5.21050585
H        8.28029261       4.13757363      -9.24062036
H        8.90936321       6.38257766     -10.13032466
H        8.06536420       8.43730781      -9.04996893
H        6.58802226       8.31200707      -7.05523951
C        8.68278203       9.60274766      -1.72834465
C        9.42986742      10.26223552      -1.04909860
Br      10.63784130      11.32857161       0.04918481
C       -1.79177424      -1.79177424      -1.79177424
C       -2.84516113      -2.50543481      -1.22174136
C       -3.65153694      -3.31204770      -2.02892251
C       -3.40513576      -3.40374004      -3.40408730
C       -2.34331374      -2.68306917      -3.96551294
C       -1.53597578      -1.87680710      -3.15944511
C       -4.25098286      -4.24915776      -4.25271635
C       -5.34541384      -3.74633336      -4.84925779
C       -6.19894214      -4.61998062      -5.75165863
H       -7.21424591      -4.63389013      -5.33293337
C       -6.22702610      -4.07019651      -7.17381730
C       -7.43355594      -3.61544444      -7.73271423
C       -7.47021255      -3.11647220      -9.03721805
C       -6.29901174      -3.05713248      -9.78927975
C       -5.09128273      -3.49224853      -9.25101423
C       -5.05561463      -3.99793528      -7.94995638
N       -5.76876368      -6.02528536      -5.74211909
C       -4.63170976      -6.45611251      -5.09837980
N       -3.88679771      -5.56454038      -4.41800534
N       -4.45458842      -7.74551677      -5.23923737
C       -5.54347927      -8.17789318      -5.96027582
C       -5.87267218      -9.47679143      -6.37649668
C       -7.05959853      -9.67766423      -7.09125818
C       -7.90409549      -8.60644319      -7.38662019
C       -7.59295015      -7.30237122      -6.98452601
C       -6.40021635      -7.12225823      -6.27464704
H       -3.04552679      -2.44281698      -0.15562603
H       -4.47032241      -3.87057366      -1.57969943
H       -2.13884153      -2.74929367      -5.03202580
H       -0.71416027      -1.32366663      -3.60631642
H       -5.63796273      -2.70949750      -4.71727992
H       -8.35877243      -3.65427614      -7.16054083
H       -8.41426243      -2.77946697      -9.45722312
H       -4.17472389      -3.44766216      -9.83360059
H       -4.10429857      -4.34122477      -7.54545556
H       -3.07417683      -5.89338993      -3.90606509
H       -5.21382723     -10.30492670      -6.13973267
H       -7.32409727     -10.68053749      -7.41763078
H       -8.82124350      -8.78761895      -7.94377849
H       -8.25315323      -6.47730719      -7.22480842
C       -6.33844336      -2.54201583     -11.13341515
C       -6.37146735      -2.11060564     -12.25912855
Br      -6.42486434      -1.41305184     -14.07931191
C       -1.79177424       1.79177424       1.79177424
C       -2.45442913       2.88417866       1.23372951
C       -3.26098375       3.69059904       2.04092436
C       -3.40514126       3.40406387       3.40375796
C       -2.73368960       2.30459092       3.95361534
C       -1.92647975       1.49797797       3.14777027
C       -4.25187968       4.24890069       4.25207660
C       -5.55376456       3.96279337       4.42444706
C       -6.41688743       4.82437245       5.32932151
H       -7.24077181       5.22007431       4.72022329
C       -6.97112496       4.00791920       6.49199575
C       -8.35623370       3.80702107       6.61845984
C       -8.87361346       3.06620461       7.68408473
C       -8.00981024       2.51038972       8.62522401
C       -6.63379948       2.68810818       8.51263782
C       -6.11685728       3.43471480       7.45193422
N       -5.70489747       6.01384900       5.81742166
C       -4.36551768       6.23094032       5.58974407
N       -3.67124805       5.33509888       4.86299650
N       -3.95804454       7.35186973       6.12942829
C       -5.08543652       7.90909843       6.68711332
C       -5.22700291       9.12360898       7.37534840
C       -6.49477581       9.49439477       7.83935036
C       -7.60185079       8.67257289       7.62273519
C       -7.48229864       7.45531208       6.94223665
C       -6.20595790       7.10115346       6.49001026
H       -2.34952356       3.11689293       0.17755331
H       -3.77346314       4.54460849       1.60252386
H       -2.83408851       2.07397649       5.01209599
H       -1.40931996       0.64863853       3.58618484
H       -6.01607119       3.10855167       3.94011729
H       -9.04666359       4.23378817       5.89313765
H       -9.94830936       2.93035343       7.77228973
H       -5.95568952       2.25617232       9.24412480
H       -5.03844988       3.57094620       7.38158281
H       -2.69457238       5.52115828       4.65790118
H       -4.36315353       9.75907200       7.53626107
H       -6.61514899      10.43397461       8.37314192
H       -8.57717064       8.98222896       7.99324134
H       -8.34774968       6.82233137       6.78518779
C       -8.54467375       1.74662393       9.72257667
C       -8.99262194       1.10697008      10.64160952
Br      -9.71691627       0.07270392      12.12760791
C        1.79177424      -1.79177424       1.79177424
C        1.37342095      -2.11771825       3.08119809
C        2.18056206      -2.92443350       3.88751158
C        3.40358121      -3.40503369       3.40434820
C        3.81409350      -3.07012074       2.10768162
C        3.00832299      -2.26309865       1.30080634
C        4.25143089      -4.25244359       4.24898249
C        4.12778229      -5.59053655       4.22268615
C        5.03069634      -6.46287197       5.07701307
H        4.38582782      -7.05483871       5.74040288
C        5.87605191      -7.38748597       4.20750203
C        5.71196271      -8.78079852       4.28895338
C        6.48671208      -9.63596077       3.50122996
C        7.42335968      -9.10479087       2.61727342
C        7.59422711      -7.72725319       2.51306519
C        6.82537040      -6.87255134       3.30558455
N        5.87919921      -5.67488733       5.98208159
C        5.94148491      -4.30100517       5.94371199
N        5.17283334      -3.63508304       5.06142706
N        6.77154378      -3.82870411       6.83909467
C        7.22935203      -4.93393770       7.51835854
C        8.12604659      -5.00467069       8.59524300
C        8.42931067      -6.25739466       9.14181560
C        7.85124256      -7.41879638       8.62711992
C        6.95753791      -7.37135698       7.55095249
C        6.67065146      -6.11000955       7.01646061
H        0.42668720      -1.74994261       3.46733998
H        1.85242623      -3.17344167       4.89472759
H        4.76428079      -3.43369142       1.72218879
H        3.33829228      -2.00877788       0.29707317
H        3.39843155      -6.08067831       3.58563028
H        4.98543374      -9.21418697       4.97396869
H        6.35415470     -10.71139078       3.58540704
H        8.32341547      -7.30792936       1.82464180
H        6.97581594      -5.79731192       3.21785103
H        5.18664918      -2.62001850       5.06696415
H        8.56807423      -4.09770931       8.99270306
H        9.12241871      -6.32283531       9.97701151
H        8.10278843      -8.38116489       9.06868762
H        6.51947440      -8.28025028       7.15554417
C        8.22062102      -9.98756908       1.80568425
C        8.88832739     -10.72689583       1.12597831
Br       9.96795213     -11.92232466       0.02695131
C       -0.00445707       0.01189536      -1.78238275
H       -0.66409135       0.67374010      -2.43557963
H        0.65740317      -0.63156657      -2.45157240
C       -0.90989263      -0.90692880      -0.91072765
C        0.90977584       0.90977584      -0.90977584
C       -0.00465871       1.77757030       0.00794375
H       -0.66225468       2.44313916      -0.64384735
H        0.64322798       2.43503045       0.67728295
C       -1.78241447       0.00034974      -0.00472694
H       -2.45427497      -0.65498947       0.64260836
H       -2.43311707       0.67328779      -0.65473579
C       -0.91132561       0.90220522       0.91563759
C       -0.01476271      -0.02253852       1.78660255
H       -0.67934791      -0.69751639       2.42135241
H        0.63392994       0.61504881       2.47327442
C        0.01484550      -1.77751727      -0.01636693
H        0.67870853      -2.42144646      -0.68295456
H       -0.62264859      -2.45592969       0.64226336
C        1.78714474       0.01002794       0.00389507
H        2.44202412       0.67113390       0.66197326
H        2.45385902      -0.65136977      -0.64189061
C        0.91606151      -0.90478549       0.90901405
