181
Properties=species:S:1:pos:R:3 pbc="F F F"
C        0.00000000       0.00000000       0.00000000
C        0.88159412       0.88159412      -0.88159412
C        0.61415428       2.24720592      -0.97934348
C        1.42152052       3.05827668      -1.77828347
C        2.48984149       2.50106192      -2.48450795
C        2.74819409       1.12652189      -2.38998691
C        1.94817456       0.31603885      -1.57693529
C        3.89992175       0.50749786      -3.09185837
O        4.51986124      -0.40700010      -2.55602031
N        4.20625835       1.02023317      -4.32954074
C        5.25336939       0.51235016      -5.19015795
N        6.41101144       0.13086259      -4.44134641
C        7.68113941       0.24158943      -4.94265251
O        7.93423386       0.76785735      -6.02141088
C        8.78393844      -0.27385680      -4.08448763
C       10.06296684       0.27466798      -4.25798242
C       11.13077654      -0.15818695      -3.47008147
C       10.92839913      -1.14970545      -2.51147697
C        9.66114280      -1.70947819      -2.35196584
Br       9.39769640      -3.06807952      -1.06249094
C        8.58655947      -1.28288735      -3.13355363
C        4.78085472      -0.61174657      -6.09759231
C        4.22978415      -1.81129351      -5.58197549
C        3.85419209      -2.86269166      -6.42664889
C        4.05101554      -2.70045054      -7.77880486
O        3.77385330      -3.62087108      -8.74065232
C        4.25432366      -2.93536924      -9.91572717
O        4.71395767      -1.59436568      -9.64957828
C        4.58733131      -1.54668688      -8.29633514
C        4.95857140      -0.49099636      -7.48989453
H       -0.21235008       2.68983819      -0.42848485
H        1.22618368       4.12644153      -1.83812714
H        3.13238860       3.15292388      -3.07160695
H        2.16393013      -0.74634910      -1.48981828
H        3.53996189       1.63120627      -4.77803236
H        5.52591540       1.37100681      -5.81662956
H        6.21489606      -0.28480416      -3.53940092
H       10.22734343       1.04843131      -5.00641578
H       12.11735490       0.27781322      -3.60604807
H       11.76305966      -1.48247507      -1.89991864
H        7.61624444      -1.75328646      -3.00737011
H        4.11174430      -1.94331921      -4.50885692
H        3.44204964      -3.78287947      -6.02812499
H        5.08413116      -3.51140459     -10.34259006
H        3.44386316      -2.88961600     -10.65163599
H        5.41100486       0.39322525      -7.92972900
C       -0.88159412      -0.88159412      -0.88159412
C       -2.19349680      -1.15387614      -0.49333074
C       -3.00535666      -1.95331272      -1.29941129
C       -2.50146485      -2.48579245      -2.48815406
C       -1.17941999      -2.21662216      -2.86866073
C       -0.37033351      -1.40256855      -2.06824662
C       -0.62393670      -2.72983026      -4.14551103
O        0.16010709      -2.03883844      -4.79015011
N       -1.04275440      -3.97994288      -4.53333497
C       -0.57014244      -4.67261597      -5.71311910
N       -0.39304923      -3.77630324      -6.81386798
C       -0.59206268      -4.15924080      -8.11407787
O       -1.03408895      -5.25887797      -8.43053518
C       -0.28723684      -3.14551972      -9.16181270
C       -0.95252550      -3.25119032     -10.39190142
C       -0.71865189      -2.31944075     -11.40457842
C        0.18984719      -1.28280295     -11.19721490
C        0.86635110      -1.18857569      -9.98140585
Br       2.11204777       0.20944738      -9.71360297
C        0.63879245      -2.11406280      -8.96195540
C        0.68269530      -5.49381706      -5.45557870
C        1.87867816      -4.90693118      -4.97221312
C        3.04283614      -5.66446040      -4.79652507
C        2.99393841      -7.00026915      -5.12303912
O        4.02931781      -7.87832625      -5.04462609
C        3.41441622      -9.06825707      -5.58084074
O        2.01156083      -8.90634328      -5.87438782
C        1.84504197      -7.58549552      -5.59652600
C        0.68087726      -6.86668077      -5.77166606
H       -2.59519221      -0.73874550       0.42796474
H       -4.03466033      -2.14849103      -1.00760098
H       -3.15868326      -3.07451277      -3.12372341
H        0.64833965      -1.17903521      -2.37670376
H       -1.53010527      -4.55592372      -3.86317153
H       -1.38758673      -5.35930412      -5.96666092
H       -0.04924560      -2.85803676      -6.56221045
H       -1.66217145      -4.05988123     -10.56013784
H       -1.24436681      -2.40447747     -12.35237191
H        0.36756659      -0.55936683     -11.98870299
H        1.19771737      -2.03334187      -8.03470358
H        1.91654320      -3.84267271      -4.75115250
H        3.95883818      -5.21025513      -4.43587820
H        3.93549763      -9.34583363      -6.50498064
H        3.53018579      -9.88093596      -4.85513297
H       -0.19988770      -7.35385003      -6.18022139
C       -0.88159412       0.88159412       0.88159412
C       -0.85583503       0.71814125       2.26672741
C       -1.65455038       1.52643089       3.07709940
C       -2.48370640       2.49113859       2.50056637
C       -2.51260809       2.64460209       1.10749271
C       -1.70041199       1.84471058       0.29602611
C       -3.34872560       3.68757676       0.46297563
O       -2.93381407       4.27017863      -0.53511124
N       -4.56548629       3.94129657       1.04924939
C       -5.54274089       4.87741281       0.53572381
N       -4.91970893       6.05310717       0.01040434
C       -5.51175868       7.28726248       0.06636018
O       -6.56526892       7.50095240       0.65728078
C       -4.78557787       8.40581120      -0.59681980
C       -5.01997458       9.70831661      -0.13267394
C       -4.35469122      10.79349731      -0.70551748
C       -3.45924869      10.58393948      -1.75301752
C       -3.24053250       9.29119358      -2.22809563
Br      -2.03857188       9.01604031      -3.66250438
C       -3.89946208       8.19924594      -1.66148227
C       -6.49029987       4.25006869      -0.47366809
C       -6.02264470       3.64429869      -1.66647725
C       -6.91020049       3.12379492      -2.61584608
C       -8.25799287       3.23201376      -2.36063677
O       -9.26019230       2.81116056      -3.17771833
C      -10.41586763       3.25649154      -2.43767758
O      -10.08859816       3.84080737      -1.16023525
C       -8.72976653       3.81929945      -1.21208642
C       -7.87954583       4.33298173      -0.25505799
H       -0.20904000      -0.02694253       2.72387549
H       -1.61899906       1.41358255       4.15817074
H       -3.07044614       3.13855274       3.14792055
H       -1.71006388       1.98034506      -0.78300962
H       -4.91240199       3.29473499       1.74206354
H       -6.12354740       5.17072452       1.41927985
H       -4.03830899       5.89179932      -0.46061548
H       -5.71963278       9.87823159       0.68432615
H       -4.53666365      11.79906096      -0.33450843
H       -2.94309525      11.43230557      -2.19489759
H       -3.73107524       7.20635940      -2.06710655
H       -4.95629615       3.59608737      -1.87510151
H       -6.54933684       2.66985022      -3.53189191
H      -10.94958650       4.00335928      -3.03762915
H      -11.07889043       2.39989813      -2.27290542
H       -8.28737897       4.82101907       0.62556107
C        0.88159412      -0.88159412       0.88159412
C        2.26513482      -0.70355495       0.87201391
C        3.07445043      -1.50216931       1.68146093
C        2.49966328      -2.48286727       2.49288082
C        1.10957896      -2.66370985       2.49141407
C        0.29690627      -1.85277188       1.69147054
C        0.46066028      -3.66637081       3.37224689
O       -0.62837275      -3.41600857       3.88124564
N        1.14742824      -4.84050391       3.56810010
C        0.65376108      -5.95850087       4.34361555
N       -0.04777434      -5.52025617       5.51073861
C       -0.04865232      -6.23387783       6.68015583
O        0.62897677      -7.24171969       6.85280563
C       -0.89215939      -5.70083423       7.78589443
C       -0.53447904      -6.02823587       9.10186041
C       -1.27878223      -5.54303986      10.17841343
C       -2.39146331      -4.73649730       9.94513667
C       -2.75921629      -4.42672836       8.63611838
Br      -4.28141458      -3.34752205       8.32600035
C       -2.02110436      -4.90551394       7.55281617
C       -0.18144296      -6.92652078       3.52162264
C       -1.35309038      -6.51456840       2.83898811
C       -2.14579642      -7.42891873       2.13502702
C       -1.75824793      -8.74921498       2.13840281
O       -2.41739415      -9.77487106       1.53615763
C       -1.60375378     -10.89429144       1.94414393
O       -0.43215369     -10.50921196       2.69211200
C       -0.62814363      -9.16755568       2.79756752
C        0.17683795      -8.28866059       3.49197103
H        2.72011658       0.06136990       0.24722629
H        4.15117625      -1.34952089       1.69005520
H        3.14046388      -3.07025802       3.14619754
H       -0.78282244      -1.98205943       1.70816233
H        1.93331853      -5.04641458       2.96946742
H        1.56209684      -6.47876679       4.67268814
H       -0.59328724      -4.67667589       5.38610417
H        0.33286471      -6.65924188       9.29008393
H       -0.98999236      -5.79556873      11.19563981
H       -2.96702295      -4.36050961      10.78701657
H       -2.34390845      -4.67116676       6.54306976
H       -1.66999092      -5.47466858       2.87260435
H       -3.04687370      -7.11206909       1.62209976
H       -2.21240909     -11.56144276       2.56628296
H       -1.28568898     -11.44168541       1.04988671
H        1.04461868      -8.65911326       4.03022718
