189
Properties=species:S:1:pos:R:3 pbc="F F F"
C        0.00000000       0.00000000       0.00000000
C        0.88159412       0.88159412      -0.88159412
C        0.61415428       2.24720592      -0.97934348
C        1.42152052       3.05827668      -1.77828347
C        2.48984149       2.50106192      -2.48450795
C        2.74819409       1.12652189      -2.38998691
C        1.94817456       0.31603885      -1.57693529
C        3.89992175       0.50749786      -3.09185837
O        4.51986124      -0.40700010      -2.55602031
N        4.20625835       1.02023317      -4.32954074
C        5.25336939       0.51235016      -5.19015795
N        6.41101144       0.13086259      -4.44134641
C        7.68113941       0.24158943      -4.94265251
O        7.93423386       0.76785735      -6.02141088
C        8.78393844      -0.27385680      -4.08448763
C       10.06296684       0.27466798      -4.25798242
C       11.13077654      -0.15818695      -3.47008147
C       10.92839913      -1.14970545      -2.51147697
C        9.66114280      -1.70947819      -2.35196584
C        8.58655947      -1.28288735      -3.13355363
C        4.78085472      -0.61174657      -6.09759231
C        4.22978415      -1.81129351      -5.58197549
C        3.85419209      -2.86269166      -6.42664889
C        4.05101554      -2.70045054      -7.77880486
O        3.77385330      -3.62087108      -8.74065232
C        4.25432366      -2.93536924      -9.91572717
O        4.71395767      -1.59436568      -9.64957828
C        4.58733131      -1.54668688      -8.29633514
C        4.95857140      -0.49099636      -7.48989453
H       -0.21235008       2.68983819      -0.42848485
H        1.22618368       4.12644153      -1.83812714
H        3.13238860       3.15292388      -3.07160695
H        2.16393013      -0.74634910      -1.48981828
H        3.53996189       1.63120627      -4.77803236
H        5.52591540       1.37100681      -5.81662956
H        6.21489606      -0.28480416      -3.53940092
H       10.22734343       1.04843131      -5.00641578
H       12.11735490       0.27781322      -3.60604807
H       11.76305966      -1.48247507      -1.89991864
H        7.61624444      -1.75328646      -3.00737011
H        4.11174430      -1.94331921      -4.50885692
H        3.44204964      -3.78287947      -6.02812499
H        5.08413116      -3.51140459     -10.34259006
H        3.44386316      -2.88961600     -10.65163599
H        5.41100486       0.39322525      -7.92972900
C        9.46058581      -2.74375687      -1.37031187
C        9.29261933      -3.60996526      -0.54817667
Br       9.02103174      -5.01055097       0.78114641
C       -0.88159412      -0.88159412      -0.88159412
C       -0.86413543      -0.71061960      -2.26594866
C       -1.66286221      -1.51884679      -3.07637166
C       -2.48375717      -2.49104845      -2.50060574
C       -2.50436909      -2.65209308      -1.10824072
C       -1.69211127      -1.85219734      -0.29684009
C       -3.33144329      -3.70295943      -0.46487527
O       -2.90808381      -4.28864337       0.52784573
N       -4.54995977      -3.96006975      -1.04600274
C       -5.51943945      -4.90413886      -0.53229920
N       -4.88733721      -6.07926059      -0.01662264
C       -5.47308720      -7.31625701      -0.07603713
O       -6.52859633      -7.53243837      -0.66246740
C       -4.73740460      -8.43441692       0.57725225
C       -4.96733614      -9.73566631       0.10738521
C       -4.29321166     -10.82030388       0.67084449
C       -3.39329527     -10.61153749       1.71466210
C       -3.17893311      -9.32018973       2.19549239
C       -3.84670668      -8.22878458       1.63826552
C       -6.46490464      -4.28727802       0.48548219
C       -5.99409751      -3.68537987       1.67901125
C       -6.87931322      -3.17471439       2.63587828
C       -8.22785839      -3.28879644       2.38728496
O       -9.22789233      -2.87768785       3.21194564
C      -10.38512773      -3.32525610       2.47570224
O      -10.06160123      -3.90098645       1.19341742
C       -8.70264515      -3.87246895       1.23813454
C       -7.85484091      -4.37647250       0.27384384
H       -0.22378458       0.04034971      -2.72253809
H       -1.63371110      -1.40004468      -4.15699656
H       -3.07049833      -3.13813755      -3.14828356
H       -1.69525306      -1.99363518       0.78148892
H       -4.90402948      -3.31169159      -1.73347945
H       -6.10340294      -5.19584395      -1.41430488
H       -4.00429703      -5.91574320       0.45054741
H       -5.67044920      -9.90497055      -0.70677076
H       -4.47180484     -11.82483566       0.29542432
H       -2.87026188     -11.45946838       2.14922703
H       -3.68144546      -7.23718702       2.04830441
H       -4.92691786      -3.63256440       1.88220025
H       -6.51596888      -2.72373365       3.55240738
H      -10.91163035      -4.07816465       3.07447836
H      -11.05358416      -2.47136379       2.31906480
H       -8.26478158      -4.86198574      -0.60719180
C       -2.25918983      -9.11164421       3.28369323
C       -1.48890483      -8.93698734       4.19506143
Br      -0.24341914      -8.65458196       5.66866673
C       -0.88159412       0.88159412       0.88159412
C       -0.58501291       1.01783217       2.23785861
C       -1.38372719       1.82819928       3.04615419
C       -2.48236535       2.49438211       2.49866390
C       -2.78124902       2.34632936       1.13712451
C       -1.97149673       1.54613236       0.32351960
C       -3.91459471       3.07247895       0.51220432
O       -3.80800375       3.49621127      -0.63533356
N       -5.03846648       3.23039580       1.28716998
C       -6.26291317       3.85679566       0.83616867
N       -5.99865652       4.98596717      -0.00140325
C       -6.81674633       6.08430595      -0.03567094
O       -7.77428677       6.23266216       0.71655316
C       -6.46490109       7.14737308      -1.01770490
C       -6.88287961       8.45810576      -0.74536813
C       -6.56719996       9.49745843      -1.62198733
C       -5.84104661       9.23063482      -2.78151077
C       -5.44207851       7.92432569      -3.06277375
C       -5.75129692       6.87824727      -2.19231844
C       -7.21742628       2.87947270       0.16980148
C       -6.84535382       2.12744283      -0.97233052
C       -7.75410400       1.27581187      -1.61176654
C       -9.03055690       1.20203940      -1.10322643
O      -10.04779324       0.45430050      -1.60845921
C      -11.12647460       0.83928383      -0.73107684
O      -10.71419818       1.72471698       0.33025511
C       -9.41032916       1.92632564       0.00032476
C       -8.53478658       2.76658231       0.65610068
H        0.27171231       0.50688796       2.67079732
H       -1.14045287       1.95135673       4.09894274
H       -3.07137283       3.15219397       3.13335263
H       -2.19424329       1.44978195      -0.73662593
H       -5.11861512       2.69301463       2.13757077
H       -6.73175183       4.22401233       1.75778762
H       -5.19718723       4.88354726      -0.61124167
H       -7.45180439       8.67222915       0.15815698
H       -6.88868879      10.51184685      -1.39931946
H       -5.59703580      10.04373950      -3.46027207
H       -5.45147406       5.86650632      -2.44765230
H       -5.84440896       2.22042747      -1.38755442
H       -7.46906231       0.70941871      -2.49118587
H      -11.89920477       1.34153202      -1.32542015
H      -11.55771750      -0.06479615      -0.28703820
H       -8.87824648       3.35034441       1.50536822
C       -4.70471735       7.65165972      -4.26923627
C       -4.08717739       7.42330198      -5.27964862
Br      -3.08866750       7.05406681      -6.91339995
C        0.88159412      -0.88159412       0.88159412
C        0.78143598      -2.26991486       0.78935284
C        1.59022805      -3.07985514       1.58799747
C        2.49187758      -2.50021629       2.48331749
C        2.58157635      -1.10453792       2.57858862
C        1.78169389      -0.29254377       1.76691103
C        3.55800820      -0.45400939       3.48726040
O        4.11264767       0.58561567       3.14184946
N        3.78540445      -1.08267021       4.68795760
C        4.65499927      -0.57375707       5.72712117
N        5.83161617       0.02866424       5.18026851
C        7.04059267      -0.00086079       5.82392788
O        7.23522394      -0.62857809       6.85970007
C        8.15842515       0.74132172       5.17746584
C        9.46915018       0.32328869       5.44975575
C       10.55511025       0.97116025       4.85872105
C       10.33744651       2.04769816       4.00042230
C        9.03530341       2.47635933       3.74468637
C        7.94258272       1.83470053       4.32934355
C        3.94324331       0.36454529       6.68800244
C        3.30534162       1.55006062       6.24518514
C        2.70546881       2.43570397       7.14838450
C        2.76724935       2.12539843       8.48751893
O        2.26784403       2.87814717       9.50393767
C        2.69596625       2.10693607      10.64565142
O        3.35022733       0.87154518      10.29048812
C        3.38454875       0.98308280       8.93551361
C        3.97635885       0.08783488       8.06894560
H        0.08585865      -2.72915291       0.09096140
H        1.52741243      -4.16209456       1.50124535
H        3.14188353      -3.14485998       3.07017592
H        1.86845044       0.78979533       1.82874421
H        3.15619727      -1.81730411       4.97569914
H        4.96238648      -1.46902714       6.28213816
H        5.68726368       0.53126117       4.31349031
H        9.64532130      -0.51613901       6.12073021
H       11.56754271       0.63573035       5.06940383
H       11.18651908       2.54806822       3.54205238
H        6.94067574       2.20461454       4.13426688
H        3.29350017       1.80386282       5.18764465
H        2.22689967       3.34670698       6.80710246
H        3.39177965       2.71383221      11.23736920
H        1.82002217       1.87623040      11.26209137
H        4.48536424      -0.78844970       8.46014518
C        8.81657818       3.59818044       2.86874307
C        8.63339581       4.53770563       2.13514056
Br       8.33720541       6.05683839       0.94896734
