161
Properties=species:S:1:pos:R:3 pbc="F F F"
C        0.00000000       0.00000000       0.00000000
C        0.88241010       0.88241010      -0.88241010
C        1.91196508       0.30959862      -1.62181009
C        2.72229632       1.12185922      -2.42324374
C        2.52165180       2.50822781      -2.49607021
C        1.47232852       3.05745053      -1.74298714
C        0.65550825       2.25355593      -0.93917693
C        3.39537576       3.35352537      -3.32367592
N        3.34342486       4.69687738      -3.29468317
N        4.47792683       5.18828911      -4.12114908
C        4.70080889       6.54810520      -4.38845833
C        3.60044098       7.42757305      -4.25183519
C        3.67820713       8.80327667      -4.49806339
C        4.88430878       9.36356614      -4.88210613
C        6.00013393       8.54271375      -5.00654805
C        5.91978019       7.15527644      -4.76027349
Br       7.60664721       6.27114367      -4.85302937
C        5.10997212       4.06368974      -4.83160337
H        6.18637157       4.04222502      -4.65547068
C        4.53079998       2.82472630      -4.13820308
C        4.83043621       4.03226752      -6.32641565
C        3.61941241       4.48136393      -6.87726243
C        3.37459604       4.39033871      -8.25022661
C        4.33243495       3.83366597      -9.09561325
C        5.53244695       3.36675550      -8.56288778
C        5.76923330       3.46474423      -7.19206440
F        6.92361485       2.97557075      -6.71327746
H        2.10204013      -0.75783203      -1.58410426
H        3.52582891       0.65720365      -2.98650783
H        1.29719337       4.13038951      -1.77876710
H       -0.14126133       2.71702434      -0.36636566
H        2.63989597       7.00926462      -3.95629287
H        2.79156234       9.41786057      -4.38137213
H        4.96259540      10.42935682      -5.06701730
H        6.95079942       8.99244403      -5.27776539
H        4.20951669       2.05034797      -4.84365380
H        5.28502045       2.38723114      -3.47196395
H        2.86346984       4.90137858      -6.21295962
H        2.43070497       4.75114800      -8.64789218
H        4.14087587       3.75819336     -10.16038451
H        6.28622922       2.91888186      -9.20072259
C       -0.88241010      -0.88241010      -0.88241010
C       -1.87182797      -1.66932734      -0.30221848
C       -2.67321733      -2.48134705      -1.11283490
C       -2.49880756      -2.52311491      -2.50402736
C       -1.49611454      -1.71482750      -3.06182415
C       -0.68999129      -0.89835337      -2.25989644
C       -3.33198621      -3.39872111      -3.34186972
N       -3.09166155      -3.59273905      -4.65058482
N       -4.02378854      -4.65879130      -5.10478518
C       -4.11818418      -5.07821221      -6.44097603
C       -3.65584181      -4.18624763      -7.43775979
C       -3.70140057      -4.47060529      -8.80754133
C       -4.20578745      -5.68538946      -9.23880415
C       -4.65019897      -6.60470007      -8.29449668
C       -4.60590438      -6.31573605      -6.91368969
Br      -5.13114919      -7.78370552      -5.81596554
C       -4.99732382      -4.96496469      -4.04297672
H       -5.02174857      -6.03423682      -3.82808188
C       -4.40672537      -4.28509171      -2.80191229
C       -6.40540484      -4.46185226      -4.32186228
C       -6.65665004      -3.28155773      -5.03983100
C       -7.96147308      -2.81994512      -5.23374317
C       -9.03867730      -3.52401833      -4.69901853
C       -8.80577168      -4.68768586      -3.96863270
C       -7.50054299      -5.14241300      -3.78308595
F       -7.31528278      -6.24959224      -3.04758804
H       -2.03033328      -1.66899609       0.77101701
H       -3.43465237      -3.09444932      -0.64043871
H       -1.33757583      -1.73095938      -4.13781477
H        0.07933757      -0.29305577      -2.72841047
H       -3.25995628      -3.22222000      -7.12327718
H       -3.33664172      -3.73606718      -9.51808614
H       -4.23862239      -5.92410965     -10.29623747
H       -5.01592400      -7.56841284      -8.63667199
H       -5.15208700      -3.72776993      -2.22366154
H       -3.95987807      -5.04076471      -2.14357277
H       -5.81223014      -2.72200088      -5.44357703
H       -8.12487658      -1.90671414      -5.79815443
H      -10.05103672      -3.16350257      -4.84491446
H       -9.62827907      -5.24415883      -3.53339578
C       -0.88241010       0.88241010       0.88241010
C       -2.25076374       0.64205044       0.95055962
C       -3.05655462       1.45661418       1.75423048
C       -2.51414415       2.51778132       2.49402436
C       -1.12985861       2.73336355       2.40954403
C       -0.31507353       1.92366785       1.60949973
C       -3.37556882       3.38095488       3.31605334
N       -2.92594738       4.50197131       3.90706673
N       -4.11080326       5.18282052       4.49374123
C       -4.02114585       6.35395146       5.26227511
C       -2.77264640       6.64570461       5.86149822
C       -2.54623270       7.77157956       6.66173493
C       -3.57376978       8.67200675       6.88420451
C       -4.81275726       8.44027996       6.29635850
C       -5.04039297       7.30334177       5.49159537
Br      -6.76651650       7.28257318       4.68173057
C       -5.29146137       4.30676112       4.40704274
H       -6.12908171       4.82114517       3.93384039
C       -4.85413767       3.20315444       3.43643726
C       -5.73233445       3.71824855       5.73853638
C       -4.82332955       3.39569772       6.75901150
C       -5.25652898       2.80793239       7.95069999
C       -6.60689579       2.51818167       8.13663669
C       -7.51989705       2.81545229       7.12674090
C       -7.07882939       3.40489055       5.94232199
F       -7.98386537       3.64717709       4.98142060
H       -2.70668871      -0.16445723       0.38608088
H       -4.12347960       1.25818328       1.78787751
H       -0.68409373       3.55176793       2.97048833
H        0.75005307       2.12690861       1.56527313
H       -1.95075964       5.94918146       5.70551236
H       -1.56477747       7.92906720       7.09695036
H       -3.41099993       9.55402047       7.49394911
H       -5.60623403       9.16606572       6.44870909
H       -5.12416350       2.19861957       3.78073539
H       -5.32197147       3.36510664       2.45713744
H       -3.76453776       3.60719370       6.60607659
H       -4.53073105       2.57490225       8.72411185
H       -6.94284553       2.05746916       9.05913905
H       -8.57317881       2.58717527       7.24547959
C        0.88241010      -0.88241010       0.88241010
C        0.30167103      -1.86804988       1.67365289
C        1.11231674      -2.66943544       2.48564710
C        2.50409447      -2.49875501       2.52310035
C        3.06241642      -1.49983719       1.71051258
C        2.26046008      -0.69375405       0.89402697
C        3.34205400      -3.33182967       3.39869338
N        4.65195715      -3.09458759       3.58844067
N        5.10653110      -4.02502540       4.65580850
C        6.44361037      -4.12195603       5.07180601
C        7.43919622      -3.66482795       4.17582506
C        8.80962735      -3.71338693       4.45653291
C        9.24285315      -4.21561479       5.67151311
C        8.29986813      -4.65488180       6.59464579
C        6.91839542      -4.60756920       6.30936549
Br       5.82328785      -5.12573362       7.78179878
C        4.04289459      -4.99477664       4.96759400
H        3.83088790      -5.01566191       6.03751746
C        2.80158849      -4.40262726       4.28951362
C        4.31650920      -6.40500333       4.46760685
C        5.03051982      -6.66148147       3.28603747
C        5.21956079      -7.96810191       2.82749867
C        4.68381766      -9.04188119       3.53601531
C        3.95729356      -8.80375400       4.70104268
C        3.77660005      -7.49676999       5.15267189
F        3.04467662      -7.30642933       6.26135711
H       -0.77199386      -2.02359015       1.67671607
H        0.63952019      -3.42787073       3.10214948
H        4.13888016      -1.34422761       1.72324222
H        2.72941781       0.07260722       0.28531808
H        7.12314354      -3.27073241       3.21157751
H        9.51914249      -3.35261722       3.71903533
H       10.30084742      -4.25071294       5.90740915
H        8.64369553      -5.01889442       7.55841889
H        2.21974924      -5.14792115       3.73584807
H        2.14657247      -3.95188299       5.04576009
H        5.43504327      -5.81972480       2.72303998
H        5.78099486      -8.13557912       1.91317117
H        4.82592770     -10.05562910       3.17789694
H        3.52133130      -9.62351983       5.26098254
