189
Properties=species:S:1:pos:R:3 pbc="F F F"
C        0.00000000       0.00000000       0.00000000
C       -0.40808696       9.58293701       3.86274164
O       -0.80969128       8.53705661       2.98546378
C        0.03862658       8.26669642       1.94885112
C       -0.09540354       6.99893240       1.38791780
C        0.73306167       6.59204787       0.33438649
C        1.68237323       7.45938415      -0.21700545
C        1.80353625       8.73143038       0.35953654
C        0.98700241       9.13939304       1.42415593
N        2.59849885       7.08462754      -1.20230338
C        2.41449063       5.83416888      -1.93694484
C        3.43824330       5.72241437      -3.08738300
H        3.25899613       6.54814628      -3.78661719
O        4.78170649       5.90547497      -2.62100845
C        3.32328386       4.41031084      -3.88196261
N        3.50367754       3.20483598      -3.08113761
C        2.47954368       2.51330664      -2.45610849
C        1.08700737       2.70879379      -2.45877326
C        0.29904464       1.88119343      -1.65426874
C        0.88268307       0.88268307      -0.88268307
C        2.26232363       0.67014464      -0.90255016
C        3.07678664       1.49663716      -1.70630994
C        4.48120580       1.53354130      -1.96581338
C        5.56809329       0.74308269      -1.53229924
C        6.85327135       1.03589369      -1.99432658
Br       8.30836368      -0.03452146      -1.43044859
C        7.07846710       2.09875931      -2.86097502
C        6.01787041       2.90272935      -3.29035523
C        4.72262666       2.59830848      -2.83550688
H       -1.08308711       9.57419868       4.72448243
H       -0.49956753      10.56024719       3.37935129
H        0.60961399       9.42102177       4.23625449
H       -0.83198972       6.30769357       1.79003439
H        0.61251754       5.57845649      -0.03492630
H        2.55465823       9.42470569      -0.01195264
H        1.12061548      10.14096877       1.81783140
H        2.93165144       7.86759433      -1.76100979
H        1.40228115       5.77920150      -2.35358099
H        2.56563220       5.01449354      -1.22787855
H        4.77695282       5.75513238      -1.65535407
H        4.07809878       4.38421626      -4.67605817
H        2.34724969       4.34271183      -4.37391473
H        0.61695054       3.48418506      -3.05590822
H       -0.77761758       2.03000755      -1.63628424
H        2.71200482      -0.11783782      -0.30597924
H        5.39823281      -0.08812709      -0.85492959
H        8.08367710       2.31942207      -3.21241331
H        6.20645528       3.74087280      -3.95508128
C       -9.82418957       1.91999674       2.59208441
O       -8.59918632       1.19905301       2.65823175
C       -8.33255899       0.37412874       1.60195838
C       -6.99049980       0.04255711       1.43233162
C       -6.58508393      -0.77670412       0.37106499
C       -7.51645889      -1.32469054      -0.51761340
C       -8.86272062      -0.98075117      -0.33195830
C       -9.27309892      -0.14907870       0.71993810
N       -7.16894809      -2.07006891      -1.64641276
C       -5.80757215      -2.58117018      -1.79686203
C       -5.70958717      -3.51863031      -3.01982319
H       -6.36971164      -4.37723128      -2.84681668
O       -6.20707019      -2.89163425      -4.20948547
C       -4.29182047      -4.06585322      -3.25788362
N       -3.27906480      -3.03849165      -3.47209467
C       -2.51594337      -2.46301949      -2.46999594
C       -2.44865097      -2.71730089      -1.08862257
C       -1.62477809      -1.90597831      -0.30375041
C       -0.88268307      -0.88268307      -0.88268307
C       -0.92755951      -0.64912599      -2.25833293
C       -1.75535596      -1.45541732      -3.06896046
C       -2.00979234      -1.49657998      -4.47418816
C       -1.51001148      -0.76181403      -5.57164970
C       -1.95948968      -1.06517173      -6.85883021
Br      -1.27602804      -0.09525850      -8.33300427
C       -2.89837769      -2.06732491      -7.07249882
C       -3.41675782      -2.79649659      -5.99770059
C       -2.95304437      -2.49952623      -4.70387142
H       -9.82478115       2.65346673       3.40468529
H      -10.68103784       1.25655251       2.74315695
H       -9.91242696       2.46998162       1.64806406
H       -6.24612622       0.44615225       2.11430451
H       -5.52188593      -0.96704052       0.26302612
H       -9.61649292      -1.35274355      -1.02208009
H      -10.33081615       0.06914231       0.81792099
H       -7.90375505      -2.70503519      -1.95146532
H       -5.50316287      -3.13219238      -0.89970839
H       -5.14966957      -1.71849521      -1.93983950
H       -6.20982908      -1.92740624      -4.05020395
H       -4.28260523      -4.71488666      -4.14088131
H       -3.97015280      -4.68204623      -2.41167720
H       -3.02213700      -3.51256747      -0.62233935
H       -1.57359288      -2.08269537       0.76761404
H       -0.33801033       0.14475777      -2.70689368
H       -0.77684991       0.02250643      -5.41069183
H       -3.24336389      -2.29341022      -8.07873837
H       -4.16205791      -3.56692303      -6.17342841
C       -5.04039945       6.51854397      -6.24683501
O       -3.97956089       6.13974841      -5.37740775
C       -4.27569444       6.12425546      -4.04347802
C       -3.43507852       5.33889397      -3.25836142
C       -3.64877493       5.22107418      -1.87912606
C       -4.67765079       5.92406415      -1.24295212
C       -5.51382232       6.70986520      -2.04825742
C       -5.31394348       6.82019078      -3.43189474
N       -4.99976908       5.77756890       0.10809179
C       -4.07387383       5.09865427       1.01307625
C       -4.55592196       5.21695450       2.47516421
H       -4.56731973       6.27943444       2.74700543
O       -5.91116657       4.77302772       2.62399561
C       -3.64363367       4.49234184       3.47958180
N       -3.49401485       3.06272679       3.23290948
C       -2.50138452       2.49772297       2.44985132
C       -1.40803762       3.07044896       1.77608785
C       -0.60727701       2.24155997       0.98566983
C       -0.88268307       0.88268307       0.88268307
C       -1.95095876       0.30929042       1.57476924
C       -2.77388960       1.12918441       2.37665973
C       -3.90417748       0.86637121       3.21001179
C       -4.59976128      -0.31271428       3.55642821
C       -5.68377040      -0.23398465       4.43370587
Br      -6.60477626      -1.81548545       4.91500000
C       -6.09433713       0.98586081       4.95800349
C       -5.42823295       2.16688820       4.61583385
C       -4.32844438       2.08445082       3.74354682
H       -4.71601594       6.32485137      -7.27423818
H       -5.25644158       7.58787336      -6.16298656
H       -5.93929968       5.91867388      -6.06359229
H       -2.62114318       4.78940000      -3.72487372
H       -2.98843301       4.56188208      -1.32441475
H       -6.34990346       7.24323151      -1.60181841
H       -5.98711578       7.45456567      -3.99792860
H       -5.46712407       6.59197815       0.50115334
H       -3.07064137       5.53239480       0.93202747
H       -4.04422947       4.04512710       0.71864772
H       -6.12182411       4.21780756       1.84780759
H       -4.03985599       4.60319218       4.49532504
H       -2.64346951       4.93831783       3.48208890
H       -1.18050791       4.12968350       1.84685241
H        0.23325412       2.67348835       0.44843998
H       -2.15546876      -0.75441796       1.49909543
H       -4.28386195      -1.26833937       3.14951273
H       -6.94138233       1.03593946       5.63819068
H       -5.76675997       3.11730685       5.01834253
C       -4.11063700       0.06505836       9.48780378
O       -3.21805281       0.51522186       8.47517622
C       -2.15355603      -0.29965738       8.21037053
C       -1.56468759      -0.11911800       6.96118065
C       -0.48037504      -0.91022823       6.56086985
C        0.07332505      -1.86739648       7.41804130
C       -0.53157962      -2.03557774       8.67143197
C       -1.62669375      -1.25669648       9.07223679
N        1.09089471      -2.74864386       7.04589119
C        1.85164303      -2.51425423       5.81970709
C        3.03042624      -3.50567850       5.71193593
H        3.70393649      -3.33024453       6.55957857
O        2.59426560      -4.86465339       5.84927092
C        3.85439038      -3.33720985       4.42395708
N        3.08889067      -3.50658201       3.19417846
C        2.45527833      -2.48099731       2.51268316
C        2.41729074      -1.09430962       2.74297406
C        1.61378916      -0.30574321       1.91497444
C        0.88268307      -0.88268307       0.88268307
C        0.94328376      -2.25548140       0.63625326
C        1.74674928      -3.07052124       1.46246321
C        2.04122384      -4.46848818       1.47084846
C        1.65568556      -5.54523228       0.64255737
C        2.14308551      -6.82553583       0.91487028
Br       1.64373029      -8.26632291      -0.20576239
C        2.98835094      -7.05618253       1.99366796
C        3.37009478      -6.00616275       2.83469747
C        2.88990138      -4.71532216       2.55121848
H       -4.98893703       0.71827570       9.47384186
H       -3.65437277       0.14348655      10.47918770
H       -4.45372422      -0.95718101       9.29092448
H       -1.96815456       0.62467696       6.27850097
H       -0.08902059      -0.75448974       5.56043118
H       -0.15839810      -2.79471818       9.35499649
H       -2.04175883      -1.42579687      10.05971480
H        1.63819530      -3.08769997       7.83436030
H        2.24339629      -1.49085425       5.80081309
H        1.16743369      -2.66200234       4.97856826
H        1.63287401      -4.88021677       5.67434849
H        4.66801013      -4.07098965       4.39937343
H        4.32265628      -2.34775208       4.39346788
H        2.98256043      -0.62951640       3.54496699
H        1.56444484       0.76595508       2.09018444
H        0.37836977      -2.69957465      -0.17779818
H        0.99519872      -5.37109513      -0.20125854
H        3.35985028      -8.05761402       2.19804817
H        4.01825336      -6.19950680       3.68464919
