153
Properties=species:S:1:pos:R:3 pbc="F F F"
C        0.00000000       0.00000000       0.00000000
C        0.87777182       0.87777182      -0.87777182
C        1.07292063       2.21797711      -0.57611052
C        1.88286958       2.99044874      -1.41179494
C        2.45951829       2.40125494      -2.53538138
N        2.27672585       1.10236634      -2.82979506
C        1.49999775       0.36527999      -2.00118491
N        3.25060264       3.21000653      -3.35773076
C        3.82272852       2.80950528      -4.56103454
O        3.63869942       1.74314137      -5.13693738
C        4.67085179       3.91968968      -5.18321848
F        3.82730376       4.78324135      -5.84322976
F        5.23712996       4.69920014      -4.20915669
C        5.72431591       3.41540819      -6.16814796
F        5.15427502       2.68787420      -7.16240345
F        6.23636709       4.52795605      -6.80858787
C        6.89257847       2.70455380      -5.49412844
F        7.94702700       2.56505635      -6.35367747
F        7.40062520       3.56439850      -4.54065971
C        6.50327527       1.38944931      -4.81024759
O        6.18183946       1.41340277      -3.61010773
N        6.49967900       0.16551837      -5.40729689
C        6.83835418      -0.20016276      -6.70679076
C        7.03326175      -1.55601211      -6.96435482
C        7.46804847      -1.95525334      -8.22965260
C        7.66284116      -0.99166133      -9.20782151
C        7.40159287       0.32746946      -8.88268848
N        6.99689505       0.73451434      -7.65293991
H        0.60361218       2.66889179       0.29361281
H        2.03741044       4.03926206      -1.18111983
H        1.39514159      -0.67703164      -2.28770671
H        3.43446564       4.15575411      -3.04408512
H        6.25440042      -0.57693431      -4.76496225
H        6.89565850      -2.30289645      -6.18894626
H        7.66329687      -3.00484703      -8.43074516
H        7.52172801       1.12697781      -9.60858503
C        8.13891747      -1.35513042     -10.51734111
C        8.53763137      -1.65953578     -11.61406377
Br       9.18231804      -2.15173351     -13.38737156
C       -0.87777182      -0.87777182      -0.87777182
C       -0.92261274      -0.69228184      -2.25211369
C       -1.74636349      -1.51729900      -3.02145078
C       -2.51458589      -2.49282024      -2.38874848
N       -2.47170132      -2.67910067      -1.05808526
C       -1.65725681      -1.87964112      -0.32956473
N       -3.33984598      -3.28875556      -3.18973838
C       -4.23573941      -4.24182298      -2.71570596
O       -4.52104916      -4.45497898      -1.54275002
C       -4.94424659      -4.97191465      -3.85759871
F       -5.98043778      -4.17909621      -4.29424088
F       -4.12528745      -5.06848751      -4.95171183
C       -5.50436146      -6.33814833      -3.46536227
F       -6.35736968      -6.23254485      -2.41463814
F       -6.30218423      -6.75771853      -4.51300826
C       -4.42796832      -7.39899846      -3.26429393
F       -4.97082177      -8.65395369      -3.24098536
F       -3.66284072      -7.42955214      -4.41329055
C       -3.50749194      -7.12565551      -2.06982472
O       -2.45746669      -6.48863440      -2.25924887
N       -3.73080660      -7.54732786      -0.79435981
C       -4.77616635      -8.30063301      -0.26818283
C       -4.60263350      -8.84296061       1.00398964
C       -5.58622950      -9.68408974       1.52787151
C       -6.72716598      -9.93099455       0.77915918
C       -6.84136652      -9.31568125      -0.45470304
N       -5.88683935      -8.51088972      -0.98662023
H       -0.33142765       0.08324439      -2.73070789
H       -1.78612730      -1.37533380      -4.09633123
H       -1.66105883      -2.08218220       0.73742437
H       -3.26719636      -3.17336571      -4.19374280
H       -2.97635874      -7.29852453      -0.16754509
H       -3.69929181      -8.65938285       1.57696634
H       -5.44404777     -10.14597833       2.50083110
H       -7.71650872      -9.45804116      -1.08274097
C       -7.75328049     -10.81539568       1.26754801
C       -8.61265140     -11.55608162       1.67657366
Br     -10.00218147     -12.75370815       2.33793353
C       -0.87777182       0.87777182       0.87777182
C       -1.05818990       0.58648856       2.22232981
C       -1.87705125       1.41589405       2.99216797
C       -2.50527429       2.50314556       2.38773476
N       -2.33057731       2.79185587       1.08645407
C       -1.52248099       1.98534512       0.35863655
N       -3.33076907       3.30125225       3.18631860
C       -4.10152250       4.36461983       2.72712602
O       -4.26437207       4.69614122       1.55826488
C       -4.84641254       5.05953319       3.86781422
F       -5.97766837       4.32826429       4.14784221
F       -4.12176828       4.99494642       5.02877209
C       -5.25759818       6.49695790       3.55331599
F       -6.02059465       6.55206774       2.43189029
F       -6.10796741       6.89904745       4.56589615
C       -4.08549214       7.47176463       3.53400394
F       -4.52098937       8.76737452       3.57739693
F       -3.42445762       7.34193190       4.73929388
C       -3.08861356       7.21593013       2.39842848
O       -2.11425251       6.47578631       2.61531115
N       -3.16404263       7.75730485       1.15114680
C       -4.09474828       8.63970400       0.61052991
C       -3.76671062       9.26569114      -0.59079729
C       -4.62919929      10.22966621      -1.11641777
C       -5.80788029      10.51467044      -0.44354937
C       -6.07953844       9.81409648       0.71811588
N       -5.24368076       8.88810677       1.25256177
H       -0.57601627      -0.27417106       2.67704595
H       -2.02256597       1.19157799       4.04364837
H       -1.41601897       2.27299826      -0.68320058
H       -3.35629234       3.09915943       4.17885309
H       -2.37996002       7.49456606       0.56790228
H       -2.83426565       9.05026099      -1.10281833
H       -4.36511219      10.75436781      -2.03028499
H       -6.99216087       9.98167335       1.28345663
C       -6.71220851      11.52247987      -0.93356022
C       -7.46958339      12.36652026      -1.34394429
Br      -8.69419453      13.73126220      -2.00750064
C        0.87777182      -0.87777182       0.87777182
C        0.79869889      -2.26123905       0.80707032
C        1.61940812      -3.03080013       1.63490502
C        2.48300143      -2.39107445       2.52207874
N        2.56616910      -1.05112839       2.59158977
C        1.77341328      -0.32101064       1.77203874
N        3.27718924      -3.19435260       3.34679808
C        4.12165248      -2.72410764       4.34750823
O        4.21997514      -1.56492195       4.73388108
C        4.88587094      -3.86189766       5.02599136
F        4.05631286      -4.43593884       5.96152317
F        5.12831382      -4.87784615       4.13932682
C        6.17214413      -3.41618488       5.71954305
F        5.92165954      -2.44672506       6.63616807
F        6.61366053      -4.49007027       6.46918022
C        7.28973568      -3.05354535       4.74797968
F        8.49579991      -2.98139608       5.38856484
F        7.46694009      -4.13314600       3.90559732
C        6.99097132      -1.81329152       3.89870933
O        6.44950565      -1.96526392       2.79058039
N        7.29303386      -0.53202740       4.24743301
C        7.92383323      -0.03637980       5.38476915
C        8.37516385       1.28180937       5.34824998
C        9.09797942       1.78648663       6.43095494
C        9.31908855       0.97003563       7.52994844
C        8.79651316      -0.31072055       7.50451710
N        8.10833051      -0.82302338       6.45299540
H        0.10879506      -2.74710318       0.12299291
H        1.56031057      -4.11296101       1.58452075
H        1.89016819       0.75429663       1.86994509
H        3.24714097      -4.19521974       3.19194416
H        7.05137494       0.13255054       3.52360397
H        8.21350707       1.90940582       4.47760707
H        9.49069201       2.79883733       6.39734033
H        8.92360834      -0.99384676       8.33983575
C       10.08461647       1.43923413       8.65574583
C       10.72574610       1.83218788       9.59860114
Br      11.76239850       2.46756086      11.12311844
