174
Properties=species:S:1:pos:R:3 pbc="F F F"
C        1.78767584       1.78767584      -1.78767584
C        1.98282465       3.12788113      -1.48601455
C        2.79277360       3.90035277      -2.32169897
C        3.36942232       3.31115896      -3.44528541
N        3.18662987       2.01227036      -3.73969909
C        2.40990177       1.27518402      -2.91108894
N        4.16050666       4.11991055      -4.26763478
C        4.73263255       3.71940931      -5.47093857
O        4.54860344       2.65304539      -6.04684140
C        5.58075581       4.82959371      -6.09312251
F        4.73720778       5.69314537      -6.75313379
F        6.14703399       5.60910416      -5.11906071
C        6.63421994       4.32531222      -7.07805199
F        6.06417904       3.59777822      -8.07230748
F        7.14627112       5.43786008      -7.71849189
C        7.80248249       3.61445782      -6.40403247
F        8.85693103       3.47496038      -7.26358149
F        8.31052922       4.47430252      -5.45056373
C        7.41317930       2.29935333      -5.72015161
O        7.09174348       2.32330679      -4.52001176
N        7.40958303       1.07542240      -6.31720092
C        7.74825821       0.70974127      -7.61669479
C        7.94316578      -0.64610808      -7.87425884
C        8.37795249      -1.04534932      -9.13955663
C        8.57274519      -0.08175730     -10.11772554
C        8.31149689       1.23737349      -9.79259250
N        7.90679907       1.64441837      -8.56284393
H        1.51351620       3.57879581      -0.61629122
H        2.94731446       4.94916609      -2.09102386
H        2.30504561       0.23287239      -3.19761073
H        4.34436966       5.06565813      -3.95398915
H        7.16430445       0.33296972      -5.67486627
H        7.80556252      -1.39299242      -7.09885028
H        8.57320090      -2.09494300      -9.34064918
H        8.43163203       2.03688184     -10.51848906
C        9.04882149      -0.44522639     -11.42724513
C        9.44753540      -0.74963176     -12.52396779
Br      10.09222206      -1.24182949     -14.29727558
C       -1.78767584      -1.78767584      -1.78767584
C       -1.87179133      -1.56956054      -3.15536847
C       -2.69413580      -2.39591807      -3.92477148
C       -3.42184638      -3.40583941      -3.29818090
N       -3.34077032      -3.62371754      -1.97411146
C       -2.52812784      -2.82213084      -1.24591605
N       -4.24721593      -4.20239120      -4.09844486
C       -5.10708110      -5.18918825      -3.62671108
O       -5.35731779      -5.43833183      -2.45284062
C       -5.82600826      -5.90858459      -4.76887918
F       -6.89212892      -5.13168346      -5.15967457
F       -5.03282832      -5.95743438      -5.88493616
C       -6.34218768      -7.29778894      -4.39760752
F       -7.17071453      -7.23970516      -3.32384505
F       -7.15564665      -7.71143736      -5.43553908
C       -5.23523693      -8.33573246      -4.25000338
F       -5.74623152      -9.60419835      -4.24504303
F       -4.49886914      -8.31861184      -5.41791449
C       -4.29188633      -8.06873943      -3.07205849
O       -3.26300338      -7.40091157      -3.27114708
N       -4.47243668      -8.52722932      -1.80254034
C       -5.48528093      -9.31945095      -1.26996238
C       -5.26634045      -9.88841111      -0.01656497
C       -6.21535281     -10.76678461       0.50997761
C       -7.36841313     -11.02391397      -0.21638632
C       -7.52888906     -10.38145847      -1.43111535
N       -6.60823485      -9.53993648      -1.96589004
H       -1.31218393      -0.76778181      -3.62863749
H       -2.76453695      -2.22855309      -4.99441436
H       -2.49997174      -3.05094038      -0.18461661
H       -4.20282760      -4.06049115      -5.10069819
H       -3.70875133      -8.27496502      -1.18842409
H       -4.35360695      -9.69624209       0.53842866
H       -6.03728787     -11.24877331       1.46715410
H       -8.41584801     -10.53036560      -2.04078932
C       -8.35974789     -11.94573215       0.27463980
C       -9.18999075     -12.71775487       0.68587418
Br     -10.53242323     -13.96605031       1.35080539
C       -1.78767584       1.78767584       1.78767584
C       -2.02363856       1.45834353       3.11473825
C       -2.84046977       2.28936191       3.88499366
C       -3.41121929       3.41694788       3.29769952
N       -3.18254011       3.74247187       2.01358735
C       -2.37714341       2.93329846       1.28573285
N       -4.23669927       4.21597770       4.09537503
C       -4.95558792       5.31977922       3.64761328
O       -5.06719203       5.69524856       2.48604965
C       -5.71570352       6.00163062       4.78613788
F       -6.87951065       5.30069466       5.00328163
F       -5.03382528       5.87379428       5.96757930
C       -6.06799577       7.46194082       4.50764756
F       -6.78985198       7.58031552       3.36409723
F       -6.93878437       7.85916382       5.50467490
C       -4.86425087       8.39609560       4.56062631
F       -5.25779705       9.70372340       4.63395244
F       -4.24959242       8.20379886       5.78200420
C       -3.83805530       8.14401523       3.45061371
O       -2.89677027       7.36412093       3.67417083
N       -3.85269426       8.72870141       2.22081068
C       -4.73455995       9.65992281       1.68021149
C       -4.34496211      10.31377002       0.51258440
C       -5.15649870      11.32363881      -0.00797771
C       -6.34746012      11.62642496       0.63482834
C       -6.68185507      10.89745754       1.76215027
N       -5.89596270       9.92615136       2.29194730
H       -1.58612916       0.56706107       3.55541301
H       -3.02930167       2.03543814       4.92276459
H       -2.22555107       3.25150646       0.25847120
H       -4.30291879       3.98209202       5.07900613
H       -3.05821689       8.45871272       1.65521083
H       -3.40316485      10.08358915       0.02466638
H       -4.84399074      11.86898018      -0.89406384
H       -7.60726640      11.07739271       2.30234382
C       -7.20055656      12.68033233       0.14995134
C       -7.91502483      13.56297976      -0.25613316
Br      -9.07025960      14.99014599      -0.91273743
C        1.78767584      -1.78767584       1.78767584
C        1.75747094      -3.16982526       1.66942413
C        2.57623002      -3.93968167       2.49891365
C        3.38854654      -3.30239195       3.43492820
N        3.42434268      -1.96354302       3.55071363
C        2.63456245      -1.23245648       2.72915579
N        4.18204733      -4.10668599       4.25931867
C        4.97725852      -3.64312826       5.30259364
O        5.02396662      -2.49499574       5.72952788
C        5.75681557      -4.77762919       5.96902727
F        4.91704159      -5.40944130       6.85700405
F        6.06195016      -5.75479487       5.05845382
C        7.00416235      -4.31389515       6.71952664
F        6.69158293      -3.38443535       7.65824646
F        7.45691012      -5.39744173       7.44827124
C        8.13992904      -3.88268015       5.79836359
F        9.32142770      -3.79292881       6.48111639
F        8.38059572      -4.92703688       4.92776288
C        7.82742605      -2.62495917       4.98029903
O        7.32767918      -2.75713396       3.85024889
N        8.07477335      -1.34699398       5.38043902
C        8.65125964      -0.86959722       6.55383740
C        9.05899380       0.46304858       6.57537131
C        9.72886812       0.95429176       7.69758344
C        9.94144390       0.10899549       8.77626501
C        9.46329890      -1.18649263       8.69167135
N        8.82726221      -1.68527500       7.60152416
H        1.10688256      -3.65459961       0.94712106
H        2.55519459      -5.02088750       2.41142232
H        2.71187774      -0.15781928       2.86583171
H        4.19069388      -5.10223260       4.07109046
H        7.83457803      -0.66667792       4.67088448
H        8.90472800       1.11395694       5.72064933
H       10.08822985       1.97943046       7.71010769
H        9.58605488      -1.89280663       9.50814142
C       10.65377517       0.56473923       9.94180429
C       11.25035261       0.94642461      10.91794343
Br      12.21496788       1.56357759      12.49627786
C       -0.00445707       0.01189536      -1.78238275
H       -0.66409135       0.67374010      -2.43557963
H        0.65740317      -0.63156657      -2.45157240
C       -0.90989263      -0.90692880      -0.91072765
C        0.90977584       0.90977584      -0.90977584
C       -0.00465871       1.77757030       0.00794375
H       -0.66225468       2.44313916      -0.64384735
H        0.64322798       2.43503045       0.67728295
C       -1.78241447       0.00034974      -0.00472694
H       -2.45427497      -0.65498947       0.64260836
H       -2.43311707       0.67328779      -0.65473579
C       -0.91132561       0.90220522       0.91563759
C       -0.01476271      -0.02253852       1.78660255
H       -0.67934791      -0.69751639       2.42135241
H        0.63392994       0.61504881       2.47327442
C        0.01484550      -1.77751727      -0.01636693
H        0.67870853      -2.42144646      -0.68295456
H       -0.62264859      -2.45592969       0.64226336
C        1.78714474       0.01002794       0.00389507
H        2.44202412       0.67113390       0.66197326
H        2.45385902      -0.65136977      -0.64189061
C        0.91606151      -0.90478549       0.90901405
