145
Properties=species:S:1:pos:R:3 pbc="F F F"
C        0.00000000       0.00000000       0.00000000
C        0.88059421       0.88059421      -0.88059421
C        0.33298797       1.97328029      -1.54081188
C        1.14742181       2.78650993      -2.34093346
C        2.51802231       2.51936729      -2.50154685
C        3.03919261       1.40589520      -1.82837723
C        2.23200556       0.59331134      -1.02034640
N        3.33586699       3.37063431      -3.30374416
C        2.84179080       4.61482838      -3.85592987
C        3.95834453       5.14257123      -4.73093730
H        4.05046404       6.22700541      -4.59474583
C        5.21556349       4.44340224      -4.25519694
C        4.71620911       3.23583801      -3.50530688
O        5.46475258       2.33725164      -3.15304685
C        3.71703174       4.93353925      -6.21863331
O        3.81322702       5.89112766      -6.98000226
N        3.41242526       3.63859714      -6.59162032
C        3.17800398       3.16002539      -7.90634607
C        3.50697944       3.89329796      -9.05115174
C        3.25225460       3.38057227     -10.32684356
C        2.66308667       2.12741395     -10.47658945
C        2.33756092       1.37857253      -9.34942430
C        2.60091939       1.88667870      -8.07407992
Br       2.11855342       0.81960280      -6.57305159
H       -0.72420145       2.20710810      -1.43956069
H        0.66766234       3.63040451      -2.82630529
H        4.08917526       1.13431433      -1.89306064
H        2.67764813      -0.25465551      -0.50627216
H        2.64800329       5.30078992      -3.02354836
H        1.91728542       4.45370777      -4.41927801
H        5.87421201       4.13439694      -5.07182134
H        5.77149415       5.07191991      -3.55220346
H        3.22247158       2.95565867      -5.86270881
H        3.98360807       4.86795172      -8.98867538
H        3.51990718       3.96701189     -11.20586524
H        2.46070420       1.73835300     -11.47118986
H        1.87687041       0.40336656      -9.47401012
C       -0.88059421      -0.88059421      -0.88059421
C       -2.26046918      -0.86551784      -0.72109312
C       -3.06739830      -1.66826871      -1.53919821
C       -2.51168045      -2.50376873      -2.52348727
C       -1.11623780      -2.50208544      -2.65514179
C       -0.30412885      -1.69577900      -1.84575544
N       -3.35053865      -3.29860394      -3.36110286
C       -4.79306852      -3.17229871      -3.34718182
C       -5.30481956      -4.25919907      -4.26783442
H       -6.12800008      -3.86688000      -4.87733520
C       -4.13049806      -4.63535018      -5.14831443
C       -2.92183887      -4.13396542      -4.40154971
O       -1.78569357      -4.44200708      -4.72735041
C       -5.87491851      -5.46261657      -3.53166923
O       -6.99733428      -5.86444863      -3.82257403
N       -5.04470555      -6.01975007      -2.57818710
C       -5.30761045      -7.16023735      -1.77652765
C       -6.34668627      -8.05625898      -2.04848389
C       -6.56914237      -9.16477022      -1.22575785
C       -5.75666618      -9.39275227      -0.11767163
C       -4.71148065      -8.51772029       0.16364320
C       -4.48275264      -7.41477866      -0.66414670
Br      -3.04654127      -6.24793057      -0.21673597
H       -2.72273830      -0.23192357       0.03219452
H       -4.13871757      -1.61021929      -1.37543528
H       -0.60775205      -3.11277907      -3.39601912
H        0.77358129      -1.71541217      -1.98743390
H       -5.04956460      -2.18216011      -3.74061686
H       -5.18550955      -3.27425399      -2.33050766
H       -4.04692415      -5.71201259      -5.32149355
H       -4.17644533      -4.11102964      -6.10814256
H       -4.19564417      -5.52175729      -2.32343760
H       -6.99766360      -7.93269946      -2.90987211
H       -7.38223262      -9.85269753      -1.45785417
H       -5.94021061     -10.25214299       0.52210654
H       -4.08351454      -8.70091121       1.03017865
C       -0.88059421       0.88059421       0.88059421
C       -1.71394925       0.30299763       1.83013326
C       -2.51410276       1.11591929       2.64484316
C       -2.50189571       2.51600181       2.52103893
C       -1.65607463       3.06812461       1.54926579
C       -0.84743708       2.26139393       0.73683228
N       -3.30809771       3.32863494       3.37351280
C       -4.04653102       2.77607005       4.48994799
C       -4.85711323       3.92533273       5.04940709
H       -4.83702310       3.88971953       6.14547264
C       -4.17833411       5.18490969       4.55091887
C       -3.35048099       4.72946700       3.37740601
O       -2.82303453       5.52093094       2.61108560
C       -6.32801720       3.87829615       4.66289095
O       -7.17994266       3.96227203       5.54214224
N       -6.57980705       3.75256149       3.31027417
C       -7.84828210       3.72017745       2.67591590
C       -9.02962497       4.10096999       3.32083417
C      -10.25770520       4.04756066       2.65440458
C      -10.32282071       3.61084451       1.33342486
C       -9.15677690       3.23707139       0.67170945
C       -7.92762777       3.29952496       1.33452528
Br      -6.37184818       2.76064285       0.37871678
H       -1.74890568      -0.77719027       1.95075193
H       -3.13930288       0.61086889       3.37420036
H       -1.58140755       4.14087936       1.39426334
H       -0.19690375       2.72986870       0.00249232
H       -3.32224739       2.41919473       5.23089944
H       -4.67949072       1.94339609       4.16738440
H       -4.88250845       5.96072737       4.23719448
H       -3.49854808       5.58954156       5.30752789
H       -5.80094385       3.55151459       2.68838061
H       -9.03044645       4.46497978       4.34480893
H      -11.16591435       4.35242428       3.17444568
H      -11.28190958       3.56436884       0.82396865
H       -9.21563352       2.89596506      -0.35735148
C        0.88059421      -0.88059421       0.88059421
C        1.00237129      -0.60752778       2.23718107
C        1.80423472      -1.42517560       3.04545489
C        2.50285714      -2.52269082       2.51338850
C        2.36533831      -2.76789495       1.14023176
C        1.55876509      -1.95900830       0.32788990
N        3.29812103      -3.35637126       3.35575317
C        3.30314439      -3.21269011       4.79671455
C        4.35217479      -4.18184157       5.29783669
H        3.98643262      -4.68402128       6.20176137
C        4.54796125      -5.18599778       4.18020364
C        4.00337146      -4.49917694       2.95480559
O        4.18055761      -4.94352878       1.83096467
C        5.65824264      -3.51211045       5.69885122
O        6.13375344      -3.74462076       6.80598273
N        6.21521482      -2.68384603       4.74358187
C        7.43667765      -1.96871320       4.83898460
C        8.39680215      -2.23354270       5.82108429
C        9.58463326      -1.49795864       5.87707853
C        9.82919017      -0.48528814       4.95261176
C        8.89012130      -0.21355220       3.96188425
C        7.70684038      -0.95517701       3.89966062
Br       6.45673475      -0.52456558       2.52990748
H        0.47680041       0.23492970       2.68059663
H        1.85606183      -1.16938568       4.09892463
H        2.86505740      -3.59978040       0.65171244
H        1.47004899      -2.18996077      -0.73074498
H        2.31099991      -3.49341350       5.16792815
H        3.52305523      -2.18044208       5.08677389
H        5.59491696      -5.46122697       4.02428636
H        3.95276858      -6.08795182       4.35489713
H        5.66577737      -2.45614283       3.91891885
H        8.26169675      -3.02397321       6.55456520
H       10.32123496      -1.72315053       6.64839882
H       10.75122778       0.08782809       5.00684737
H        9.08690048       0.57853557       3.24588218
