182
Properties=species:S:1:pos:R:3 pbc="F F F"
C        1.79157521       1.79157521      -1.79157521
C        2.55528970       1.21398395      -2.80864292
C        3.33898731       2.02252787      -3.63561363
C        3.36028077       3.40816949      -3.43479409
C        2.60900668       3.97797331      -2.39786174
C        1.81641612       3.16926864      -1.58061078
C        4.15625574       4.31676408      -4.29051332
O        4.59010940       5.38984478      -3.90562087
O        4.21133509       3.83732838      -5.56013164
C        4.84806095       4.71542360      -6.50629670
C        3.86512600       5.72730206      -7.00258710
H        3.24401448       6.10393195      -6.19692937
C        3.25228868       5.59182543      -8.37890845
H        3.60542346       4.78726794      -9.01617228
C        1.77993503       5.77664597      -8.54406667
O        1.10735671       4.75608789      -7.78973911
C        0.96426642       3.56051632      -8.40802632
O        1.25184130       3.30827953      -9.56724158
C        0.47439612       2.54508577      -7.43443057
C        0.28726745       1.23082672      -7.88414849
C       -0.11184229       0.23040476      -6.99304743
C       -0.32851855       0.54405674      -5.65293688
Br      -0.83327525      -0.81232694      -4.43921433
C       -0.16378709       1.85122489      -5.19678135
C        0.24122515       2.85113582      -6.08439966
C        4.21621030       6.71750257      -8.08761932
Cl       3.63671637       8.36607033      -7.88690571
Cl       5.79600868       6.64214150      -8.86219091
H        2.53753302       0.13777293      -2.96710922
H        3.92770846       1.56528392      -4.42636888
H        2.63166467       5.05335829      -2.23167631
H        1.22586134       3.62330827      -0.78922651
H        5.21413078       4.07869193      -7.32012436
H        5.72618204       5.19544439      -6.05751796
H        1.49108153       5.75052008      -9.60204824
H        1.42698164       6.73116154      -8.14434426
H        0.46368049       0.97755892      -8.92883381
H       -0.24421151      -0.78567107      -7.35377740
H       -0.33463182       2.10002015      -4.15257369
H        0.38246190       3.85984213      -5.70510004
C       -1.79157521      -1.79157521      -1.79157521
C       -1.82220836      -3.17249677      -1.58321143
C       -2.65122805      -3.97697255      -2.36892821
C       -3.44175056      -3.39435779      -3.36713599
C       -3.38859554      -2.01092459      -3.58532161
C       -2.56886422      -1.20714453      -2.79028679
C       -4.35289112      -4.19291632      -4.21772570
O       -4.67419223      -3.86388762      -5.34749519
O       -4.85276450      -5.24176784      -3.51426277
C       -5.85635685      -6.00584426      -4.20758014
C       -7.19192578      -5.35138027      -4.05170911
H       -7.11871220      -4.27378167      -4.15238193
C       -8.21601753      -5.91523660      -3.09176843
H       -7.97974149      -6.84504559      -2.58407660
C       -8.94017800      -4.99018820      -2.17028147
O       -7.97981782      -4.37869683      -1.29466906
C       -7.63379801      -5.09770505      -0.20130601
O       -8.13569070      -6.15054689       0.15887518
C       -6.47087819      -4.45816725       0.47513299
C       -5.94827946      -5.07439067       1.62042747
C       -4.81977953      -4.54531142       2.25348104
C       -4.21578779      -3.39743906       1.74475177
Br      -2.66995736      -2.70043773       2.57678294
C       -4.73682967      -2.76443423       0.61704475
C       -5.86071430      -3.29525109      -0.02079524
C       -8.45790637      -5.98231754      -4.58110828
Cl      -9.62531289      -4.91455626      -5.34982326
Cl      -8.39332325      -7.57305305      -5.33396479
H       -1.21027445      -3.62587396      -0.80626675
H       -2.67123999      -5.04999803      -2.19812323
H       -3.99323279      -1.55588254      -4.36758394
H       -2.54689534      -0.13355123      -2.95794954
H       -5.84531572      -7.00684525      -3.76078610
H       -5.58903723      -6.12558771      -5.26451945
H       -9.71904935      -5.51822068      -1.60637983
H       -9.43429396      -4.17003572      -2.69815776
H       -6.41073883      -5.97710122       2.01776683
H       -4.42028197      -5.03862651       3.13501365
H       -4.26982694      -1.86722012       0.21908504
H       -6.24001850      -2.79779029      -0.90959529
C       -1.79157521       1.79157521       1.79157521
C       -1.30373079       3.01359371       2.26059207
C       -2.11971332       3.83527755       3.04213794
C       -3.42081964       3.42488046       3.35754424
C       -3.89537560       2.18721059       2.90225555
C       -3.08249255       1.37328266       2.11052033
C       -4.33725087       4.26087421       4.16540806
O       -5.23512175       3.79999596       4.85045733
O       -4.10486896       5.57756615       3.92636000
C       -5.03417737       6.47581895       4.55978493
C       -6.26474218       6.60963457       3.72063840
H       -6.57535554       5.65140093       3.31811933
C       -6.49185516       7.84840868       2.88275872
H       -5.77717883       8.66053343       2.97115143
C       -6.93588604       7.69974666       1.46501497
O       -5.91062900       7.00317250       0.73938221
C       -4.89222239       7.76479837       0.27578830
O       -4.82214260       8.98258187       0.32263794
C       -3.80133978       6.88962223      -0.23704956
C       -2.64293671       7.49839256      -0.73908661
C       -1.56784803       6.71798738      -1.17422550
C       -1.65186245       5.32863681      -1.11202419
Br      -0.18742098       4.27206878      -1.66587762
C       -2.80572721       4.71050436      -0.63201242
C       -3.87872339       5.48873602      -0.19069878
C       -7.37434350       7.57045478       4.07653391
Cl      -9.02555262       7.00444925       3.85969055
Cl      -7.19762673       8.63266698       5.47004738
H       -0.29384347       3.33452775       2.01404394
H       -1.73330240       4.78571693       3.40034192
H       -4.90222022       1.85985830       3.15462075
H       -3.46597029       0.42239431       1.75003151
H       -4.51356106       7.43484714       4.66453886
H       -5.27480243       6.13143426       5.57290770
H       -7.15714455       8.67419412       1.01231118
H       -7.84090326       7.09402351       1.36756067
H       -2.56776496       8.58427650      -0.78196825
H       -0.67279020       7.20361250      -1.55250787
H       -2.87577250       3.62684941      -0.58465989
H       -4.76171029       4.98797007       0.19772372
C        1.79157521      -1.79157521       1.79157521
C        2.53861869      -2.82251536       1.21678251
C        3.36902014      -3.61062241       2.01748626
C        3.44169772      -3.36704460       3.39450202
C        2.67190079      -2.34552567       3.96741528
C        1.85231330      -1.55073966       3.16324258
C        4.31743514      -4.15639111       4.28970689
O        4.08409221      -4.32669294       5.47478990
O        5.44297150      -4.53525008       3.63057354
C        6.42609832      -5.19316452       4.45051841
C        7.26317773      -4.17496643       5.15687099
H        6.65825161      -3.35584035       5.53078384
C        8.66748826      -3.87275862       4.68277568
H        9.06954777      -4.46931072       3.87000519
C        9.10236803      -2.45085076       4.54742888
O        8.28281790      -1.81882285       3.55154296
C        8.67079757      -1.99519084       2.26682066
O        9.69612935      -2.54049647       1.89073659
C        7.61049558      -1.49626838       1.34714849
C        7.81941902      -1.61641947      -0.03359583
C        6.82710121      -1.21894463      -0.93443593
C        5.62727143      -0.69694559      -0.45574194
Br       4.27059610      -0.19213005      -1.66911400
C        5.41437428      -0.55502613       0.91481874
C        6.40226531      -0.95761353       1.81688178
C        8.44887777      -4.56548989       6.00696453
Cl       8.67051249      -3.69813312       7.52104680
Cl       8.92685858      -6.25691690       6.11656561
H        2.48477928      -3.01100718       0.14662870
H        3.94906120      -4.40860062       1.56169943
H        2.71731690      -2.16040253       5.03897984
H        1.27133630      -0.75138543       3.61567438
H        7.02958525      -5.80943030       3.77393152
H        5.94310330      -5.87701127       5.15902981
H       10.16749797      -2.38214215       4.29400974
H        8.95930049      -1.87647605       5.46671090
H        8.75182072      -2.03202398      -0.41377148
H        6.99924391      -1.32628110      -2.00163019
H        4.48065774      -0.14562696       1.29167732
H        6.20928341      -0.85642727       2.88169340
C       -0.00445707       0.01189536      -1.78238275
H       -0.66409135       0.67374010      -2.43557963
H        0.65740317      -0.63156657      -2.45157240
C       -0.90989263      -0.90692880      -0.91072765
C        0.90977584       0.90977584      -0.90977584
C       -0.00465871       1.77757030       0.00794375
H       -0.66225468       2.44313916      -0.64384735
H        0.64322798       2.43503045       0.67728295
C       -1.78241447       0.00034974      -0.00472694
H       -2.45427497      -0.65498947       0.64260836
H       -2.43311707       0.67328779      -0.65473579
C       -0.91132561       0.90220522       0.91563759
C       -0.01476271      -0.02253852       1.78660255
H       -0.67934791      -0.69751639       2.42135241
H        0.63392994       0.61504881       2.47327442
C        0.01484550      -1.77751727      -0.01636693
H        0.67870853      -2.42144646      -0.68295456
H       -0.62264859      -2.45592969       0.64226336
C        1.78714474       0.01002794       0.00389507
H        2.44202412       0.67113390       0.66197326
H        2.45385902      -0.65136977      -0.64189061
C        0.91606151      -0.90478549       0.90901405
