130
Properties=species:S:1:pos:R:3 pbc="F F F"
C        1.77689823       1.77689823      -1.77689823
C        3.11754585       2.01221228      -1.58303582
C        3.52487336       2.86931100      -2.63514210
C        2.40454885       3.11035517      -3.41119188
O        1.33421572       2.44006317      -2.87818767
C        2.23899382       3.89352577      -4.61416366
O        3.14812014       4.45498732      -5.21549017
O        0.89355283       3.89923229      -4.98179721
C        0.42100289       4.53545362      -6.15802900
C        0.91095451       5.78040180      -6.54629878
C        0.38986504       6.39076386      -7.68077163
C       -0.63173537       5.76946977      -8.40853673
Br      -1.26314694       6.71490540      -9.93991762
C       -1.16610024       4.51373465      -8.01424222
C       -2.21356286       3.84605526      -8.69803548
C       -2.71198956       2.61582311      -8.26529055
C       -2.17778520       2.01396818      -7.13690353
C       -1.14577448       2.64365678      -6.44353015
C       -0.62468760       3.88934171      -6.86050011
H        3.73000948       1.61304967      -0.78604197
H        4.51413606       3.26763230      -2.81827757
H        1.68886328       6.28677363      -5.98263813
H        0.78246963       7.35686056      -7.98959049
H       -2.66526925       4.28157752      -9.58624111
H       -3.51856076       2.13377234      -8.81174178
H       -2.56143916       1.05738991      -6.79217651
H       -0.74813278       2.14848151      -5.55906814
C       -1.77689823      -1.77689823      -1.77689823
C       -1.62711795      -1.95354614      -3.13212986
C       -2.64714282      -2.85333999      -3.52884365
C       -3.36444452      -3.17256829      -2.38908309
O       -2.82801092      -2.50684026      -1.31761539
C       -4.49387036      -4.05361656      -2.19919633
O       -4.98765927      -4.75819316      -3.07274521
O       -4.92057723      -3.98070610      -0.87329899
C       -5.97656400      -4.77695398      -0.36096753
C       -7.13305340      -4.99952696      -1.10507473
C       -8.16353013      -5.74829092      -0.54957948
C       -8.04658847      -6.25116396       0.75148130
Br      -9.53334943      -7.25598144       1.39765479
C       -6.88849194      -6.01192493       1.53854024
C       -6.72118857      -6.47691654       2.86757723
C       -5.56664776      -6.20727715       3.60480081
C       -4.54287957      -5.46619160       3.03598466
C       -4.67569994      -4.99635087       1.73063836
C       -5.83449179      -5.25479168       0.96412926
H       -0.87396784      -1.49603466      -3.75909863
H       -2.84394253      -3.23347642      -4.52262699
H       -7.24994857      -4.60018984      -2.10813664
H       -9.06043203      -5.93174487      -1.13674378
H       -7.49889205      -7.05949917       3.35584183
H       -5.47354837      -6.57636410       4.62295911
H       -3.64173982      -5.25010806       3.60372061
H       -3.85643987      -4.41440243       1.31142544
C       -1.77689823       1.77689823       1.77689823
C       -3.15132373       1.75607246       1.80539776
C       -3.54168234       2.72125078       2.76639334
C       -2.37874020       3.27897981       3.26837589
O       -1.29903744       2.69797707       2.65545204
C       -2.17605249       4.29172903       4.27890173
O       -3.06812727       4.80570427       4.94476610
O       -0.81507265       4.57976044       4.37974924
C       -0.29130843       5.49363275       5.32954432
C       -0.94018070       6.69601817       5.60145622
C       -0.37109429       7.58461317       6.50569307
C        0.85166463       7.28188741       7.11604834
Br       1.52709883       8.58774999       8.33102492
C        1.54466495       6.07493827       6.83160331
C        2.79430217       5.72303542       7.40179463
C        3.44156431       4.52783919       7.08284923
C        2.85912213       3.64656396       6.18564469
C        1.63012998       3.96228319       5.60925924
C        0.95548768       5.16588391       5.91475798
H       -3.79549924       1.12153160       1.21207028
H       -4.54674599       2.98533108       3.06796886
H       -1.87906270       6.95698799       5.12222436
H       -0.88545082       8.51714053       6.72632933
H        3.29024584       6.38462316       8.10817207
H        4.40089833       4.29172002       7.53613167
H        3.35732045       2.71505131       5.93039641
H        1.19845797       3.25215100       4.90572384
C        1.77689823      -1.77689823       1.77689823
C        1.54831690      -2.06219240       3.10228466
C        2.60207414      -2.91691444       3.51033788
C        3.41695526      -3.10205841       2.40708223
O        2.90756469      -2.39777307       1.34712880
C        4.61822715      -3.88767611       2.24077999
O        5.10154278      -4.61902189       3.09803297
O        5.12794273      -3.68884645       0.95779314
C        6.27193839      -4.37147376       0.47107335
C        7.38813682      -4.56852206       1.28099620
C        8.50621712      -5.20248224       0.75270117
C        8.51551520      -5.61546741      -0.58471149
Br      10.11253872      -6.46640628      -1.18726892
C        7.39942803      -5.39879903      -1.43635043
C        7.35775108      -5.77548044      -2.80270363
C        6.23957259      -5.53197376      -3.60242225
C        5.12782059      -4.90617166      -3.06090574
C        5.13644949      -4.52528303      -1.72032008
C        6.25603820      -4.75950331      -0.89038730
H        0.72263380      -1.70432978       3.70213754
H        2.75791217      -3.35453216       4.48760161
H        7.40671892      -4.23671819       2.31483793
H        9.37197815      -5.36682504       1.39011748
H        8.20756233      -6.26627386      -3.27128681
H        6.24348029      -5.83094912      -4.64747605
H        4.25412587      -4.71107625      -3.67707485
H        4.25005002      -4.03289687      -1.32353002
C       -0.00445707       0.01189536      -1.78238275
H       -0.66409135       0.67374010      -2.43557963
H        0.65740317      -0.63156657      -2.45157240
C       -0.90989263      -0.90692880      -0.91072765
C        0.90977584       0.90977584      -0.90977584
C       -0.00465871       1.77757030       0.00794375
H       -0.66225468       2.44313916      -0.64384735
H        0.64322798       2.43503045       0.67728295
C       -1.78241447       0.00034974      -0.00472694
H       -2.45427497      -0.65498947       0.64260836
H       -2.43311707       0.67328779      -0.65473579
C       -0.91132561       0.90220522       0.91563759
C       -0.01476271      -0.02253852       1.78660255
H       -0.67934791      -0.69751639       2.42135241
H        0.63392994       0.61504881       2.47327442
C        0.01484550      -1.77751727      -0.01636693
H        0.67870853      -2.42144646      -0.68295456
H       -0.62264859      -2.45592969       0.64226336
C        1.78714474       0.01002794       0.00389507
H        2.44202412       0.67113390       0.66197326
H        2.45385902      -0.65136977      -0.64189061
C        0.91606151      -0.90478549       0.90901405
