138
Properties=species:S:1:pos:R:3 pbc="F F F"
C        1.77689823       1.77689823      -1.77689823
C        3.11754585       2.01221228      -1.58303582
C        3.52487336       2.86931100      -2.63514210
C        2.40454885       3.11035517      -3.41119188
O        1.33421572       2.44006317      -2.87818767
C        2.23899382       3.89352577      -4.61416366
O        3.14812014       4.45498732      -5.21549017
O        0.89355283       3.89923229      -4.98179721
C        0.42100289       4.53545362      -6.15802900
C        0.91095451       5.78040180      -6.54629878
C        0.38986504       6.39076386      -7.68077163
C       -0.63173537       5.76946977      -8.40853673
C       -1.16610024       4.51373465      -8.01424222
C       -2.21356286       3.84605526      -8.69803548
C       -2.71198956       2.61582311      -8.26529055
C       -2.17778520       2.01396818      -7.13690353
C       -1.14577448       2.64365678      -6.44353015
C       -0.62468760       3.88934171      -6.86050011
H        3.73000948       1.61304967      -0.78604197
H        4.51413606       3.26763230      -2.81827757
H        1.68886328       6.28677363      -5.98263813
H        0.78246963       7.35686056      -7.98959049
H       -2.66526925       4.28157752      -9.58624111
H       -3.51856076       2.13377234      -8.81174178
H       -2.56143916       1.05738991      -6.79217651
H       -0.74813278       2.14848151      -5.55906814
C       -1.10845626       6.48328139      -9.56474180
C       -1.50771000       7.08109862     -10.53306355
Br      -2.15326953       8.04771853     -12.09875792
C       -1.77689823      -1.77689823      -1.77689823
C       -1.65164281      -1.92289828      -3.13825287
C       -2.66120723      -2.83537887      -3.53274036
C       -3.34815171      -3.19242216      -2.38552202
O       -2.80326807      -2.53759506      -1.31160343
C       -4.45531298      -4.10032089      -2.19104939
O       -4.95268681      -4.79711021      -3.06880062
O       -4.85588272      -4.06315038      -0.85554922
C       -5.88468268      -4.89130153      -0.33850129
C       -7.05157200      -5.12262661      -1.06345647
C       -8.05494210      -5.90366096      -0.50279747
C       -7.90093262      -6.43027935       0.78494085
C       -6.73188594      -6.18313271       1.55314203
C       -6.52772497      -6.67141061       2.86860770
C       -5.36388003      -6.39293965       3.58769557
C       -4.36733564      -5.61944925       3.01369837
C       -4.53663617      -5.12609100       1.72131472
C       -5.70556338      -5.39286235       0.97327152
H       -0.92105739      -1.43728378      -3.77075995
H       -2.87078178      -3.19928123      -4.52998293
H       -7.19726969      -4.70554102      -2.05546434
H       -8.95989837      -6.09369359      -1.07532872
H       -7.28318803      -7.27973990       3.36037855
H       -5.24226901      -6.78058620       4.59590185
H       -3.45920681      -5.39631916       3.56739871
H       -3.73819225      -4.51893560       1.29771098
C       -8.99750312      -7.22172450       1.27966069
C       -9.91588091      -7.88455981       1.69398855
Br     -11.40082012      -8.95630846       2.36392167
C       -1.77689823       1.77689823       1.77689823
C       -3.14980718       1.72967554       1.83331124
C       -3.54047383       2.70605203       2.78280060
C       -2.37930219       3.29643640       3.25035730
O       -1.30042198       2.72458253       2.62746205
C       -2.17713589       4.33299634       4.23655103
O       -3.06608094       4.84259147       4.90992523
O       -0.82047808       4.64964526       4.30445899
C       -0.29657392       5.59245304       5.22545854
C       -0.96392605       6.78707415       5.48665488
C       -0.39510563       7.70459203       6.36170288
C        0.84521256       7.43820348       6.95328021
C        1.55652078       6.23963562       6.67876179
C        2.82390294       5.92381277       7.23061805
C        3.48857852       4.73540480       6.92229782
C        2.90639906       3.82508248       6.05440310
C        1.66025668       4.10501712       5.49665200
C        0.96777952       5.30101969       5.79191405
H       -3.79267115       1.07086257       1.26556739
H       -4.54451031       2.95633980       3.09919583
H       -1.91706941       7.01991988       5.02128576
H       -0.92359873       8.63107475       6.57424720
H        3.32027068       6.60901591       7.91380415
H        4.46115905       4.52728187       7.36083054
H        3.41804066       2.89860400       5.80756392
H        1.22916297       3.37260697       4.81597287
C        1.35323610       8.45212636       7.84067667
C        1.77870581       9.30128678       8.58387120
Br       2.46665434      10.67430735       9.78555391
C        1.77689823      -1.77689823       1.77689823
C        1.57567213      -2.02251154       3.11461029
C        2.61769589      -2.89371222       3.51791836
C        3.39869558      -3.12783316       2.39956715
O        2.87993805      -2.43761499       1.33491352
C        4.57496722      -3.94834805       2.22336799
O        5.06171658      -4.67006342       3.08681763
O        5.05605484      -3.79537153       0.92315596
C        6.16937234      -4.51958820       0.42552496
C        7.30088572      -4.72499552       1.21177385
C        8.38845711      -5.40095651       0.67198691
C        8.35255314      -5.84777146      -0.65405347
C        7.22056408      -5.62381601      -1.48250346
C        7.13388600      -6.03375969      -2.83711781
C        6.00183515      -5.78161478      -3.61432583
C        4.92072479      -5.11363616      -3.06127443
C        4.97381376      -4.69928195      -1.73168326
C        6.10829384      -4.94141826      -0.92455788
H        0.77517417      -1.62824997       3.72567699
H        2.78773699      -3.31034801       4.50196093
H        7.35471076      -4.36771833       2.23584596
H        9.26604494      -5.57154203       1.29133371
H        7.95854056      -6.55816792      -3.31415910
H        5.97102501      -6.10695312      -4.65102477
H        4.03653897      -4.91157425      -3.65998596
H        4.11077050      -4.17414926      -1.32550289
C        9.52944253      -6.53265287      -1.12252847
C       10.51508739      -7.10624105      -1.51487627
Br      12.10879178      -8.03368462      -2.14926949
C       -0.00445707       0.01189536      -1.78238275
H       -0.66409135       0.67374010      -2.43557963
H        0.65740317      -0.63156657      -2.45157240
C       -0.90989263      -0.90692880      -0.91072765
C        0.90977584       0.90977584      -0.90977584
C       -0.00465871       1.77757030       0.00794375
H       -0.66225468       2.44313916      -0.64384735
H        0.64322798       2.43503045       0.67728295
C       -1.78241447       0.00034974      -0.00472694
H       -2.45427497      -0.65498947       0.64260836
H       -2.43311707       0.67328779      -0.65473579
C       -0.91132561       0.90220522       0.91563759
C       -0.01476271      -0.02253852       1.78660255
H       -0.67934791      -0.69751639       2.42135241
H        0.63392994       0.61504881       2.47327442
C        0.01484550      -1.77751727      -0.01636693
H        0.67870853      -2.42144646      -0.68295456
H       -0.62264859      -2.45592969       0.64226336
C        1.78714474       0.01002794       0.00389507
H        2.44202412       0.67113390       0.66197326
H        2.45385902      -0.65136977      -0.64189061
C        0.91606151      -0.90478549       0.90901405
