117
Properties=species:S:1:pos:R:3 pbc="F F F"
C        0.00000000       0.00000000       0.00000000
C        0.86699421       0.86699421      -0.86699421
C        2.20764183       1.10230826      -0.67313180
C        2.61496934       1.95940698      -1.72523807
C        1.49464483       2.20045114      -2.50128785
O        0.42431170       1.53015915      -1.96828364
C        1.32908980       2.98362175      -3.70425963
O        2.23821612       3.54508330      -4.30558615
O       -0.01635119       2.98932826      -4.07189318
C       -0.48890114       3.62554959      -5.24812497
C        0.00105048       4.87049778      -5.63639475
C       -0.52003898       5.48085984      -6.77086760
C       -1.54163940       4.85956574      -7.49863271
C       -2.07600427       3.60383063      -7.10433820
C       -3.12346689       2.93615124      -7.78813146
C       -3.62189358       1.70591909      -7.35538653
C       -3.08768923       1.10406416      -6.22699951
C       -2.05567850       1.73375275      -5.53362612
C       -1.53459163       2.97943768      -5.95059608
H        2.82010546       0.70314565       0.12386206
H        3.60423204       2.35772827      -1.90837354
H        0.77895926       5.37686961      -5.07273411
H       -0.12743440       6.44695653      -7.07968647
H       -3.57517327       3.37167350      -8.67633709
H       -4.42846479       1.22386832      -7.90183776
H       -3.47134319       0.14748589      -5.88227249
H       -1.65803680       1.23857749      -4.64916411
C       -2.01836028       5.57337736      -8.65483778
C       -2.41761402       6.17119460      -9.62315953
Br      -3.06317356       7.13781450     -11.18885389
C       -0.86699421      -0.86699421      -0.86699421
C       -0.78337273      -0.96380025      -2.23590889
C       -1.77521320      -1.89661764      -2.62778355
C       -2.41063329      -2.31435060      -1.47139994
O       -1.85137462      -1.67704501      -0.39433486
C       -3.48008340      -3.26527939      -1.27160839
O       -3.98383442      -3.94933593      -2.15571521
O       -3.83601108      -3.28569329       0.07683412
C       -4.81884056      -4.16490755       0.59897468
C       -6.00146913      -4.41181406      -0.09465982
C       -6.95896368      -5.24453372       0.47180895
C       -6.74401592      -5.80767510       1.73513197
C       -5.55828206      -5.54631363       2.47243114
C       -5.29355694      -6.07036383       3.76310496
C       -4.11571935      -5.77627480       4.45258213
C       -3.16524836      -4.95088411       3.87275803
C       -3.39453420      -4.42133285       2.60416668
C       -4.57881782      -4.70295594       1.88633162
H       -0.09108526      -0.43308332      -2.87522046
H       -2.00649837      -2.23444309      -3.62939239
H       -6.19445538      -3.96752589      -1.06658171
H       -7.87612703      -5.44629930      -0.07678228
H       -6.01144445      -6.71987576       4.25848290
H       -3.94721012      -6.19250872       5.44247755
H       -2.24664486      -4.71533095       4.40356062
H       -2.63135721      -3.77377368       2.17542609
C       -7.79650651      -6.65179481       2.23844646
C       -8.67796738      -7.35874506       2.65997234
Br     -10.10321506      -8.50182383       3.34154405
C       -0.86699421       0.86699421       0.86699421
C       -2.23283157       0.76411285       0.98613747
C       -2.62574208       1.76414740       1.90972491
C       -1.47308049       2.42340111       2.29990223
O       -0.39732071       1.87079679       1.65463699
C       -1.27538409       3.51028372       3.23130337
O       -2.15666614       4.01104149       3.92117794
O        0.06756904       3.88690300       3.22553629
C        0.58778551       4.89097141       4.08158753
C       -0.12016132       6.06660286       4.32117884
C        0.44405786       7.04529852       5.13044779
C        1.71894190       6.85824617       5.67725479
C        2.47037170       5.67995001       5.42258626
C        3.77277395       5.44294465       5.93064510
C        4.47577468       4.27131306       5.64387365
C        3.89820629       3.29954958       4.84203115
C        2.61834391       3.50137424       4.32867004
C        1.88670344       4.67882801       4.60331757
H       -2.86938021       0.05410998       0.47589886
H       -3.62555424       1.98538570       2.25939392
H       -1.10157061       6.23795152       3.88904084
H       -0.11547449       7.95703210       5.32670202
H        4.26683071       6.17818793       6.56148009
H        5.47435052       4.12427616       6.04731564
H        4.43946369       2.38558571       4.61229317
H        2.19163633       2.72189328       3.69944785
C        2.21873093       7.93113305       6.49745274
C        2.63730423       8.82967581       7.18436852
Br       3.31410187      10.28254346       8.29505324
C        0.86699421      -0.86699421       0.86699421
C        0.73544824      -1.02073054       2.22690309
C        1.74769424      -1.93000988       2.62191027
C        2.44242477      -2.27750810       1.47645096
O        1.89970986      -1.61992827       0.40311636
C        3.55529305      -3.17863211       1.28304602
O        4.05173453      -3.87739740       2.15975363
O        3.96257881      -3.13243040      -0.05013895
C        4.99834405      -3.95253479      -0.56610542
C        6.16265017      -4.18158313       0.16370971
C        7.17296680      -4.95447660      -0.39575495
C        7.02837754      -5.47517113      -1.68698962
C        5.86205580      -5.23008758      -2.45997882
C        5.66726036      -5.71255810      -3.77900265
C        4.50572256      -5.43637994      -4.50269047
C        3.50220163      -4.67106432      -3.92989150
C        3.66223071      -4.18357399      -2.63410433
C        4.82863967      -4.44817735      -1.88137487
H       -0.00092457      -0.54220966       2.85810396
H        1.95399104      -2.29801096       3.61833186
H        6.30103087      -3.76892108       1.15861102
H        8.07592170      -5.14279696       0.18048994
H        6.42842007      -6.31439464      -4.26997740
H        4.39135847      -5.81939456      -5.51351174
H        2.59580427      -4.44976193      -4.48715101
H        2.85845065      -3.58277896      -2.21152481
C        8.13160459      -6.25833564      -2.18008537
C        9.05555725      -6.91423591      -2.59305306
Br      10.54951055      -7.97477118      -3.26078690
