158
Properties=species:S:1:pos:R:3 pbc="F F F"
C        1.79180650       1.79180650      -1.79180650
C        2.98129995       1.28057194      -2.30750464
C        3.79046927       2.08615797      -3.11268538
C        3.40743252       3.40656514      -3.40062118
C        2.20760210       3.91173564      -2.87878242
C        1.40104374       3.10091504      -2.07369169
N        4.23667121       4.22239905      -4.21929149
N        3.91184605       5.50434092      -4.52297663
C        4.92562678       5.89448118      -5.31048447
C        5.13915644       7.13424888      -5.94688198
C        6.30730824       7.21386430      -6.74013163
C        7.21193469       6.11787972      -6.84893364
C        7.02702484       4.87297887      -6.21060852
C        5.85834542       4.78258813      -5.44358146
N        5.39427816       3.74802493      -4.73449086
N        6.52124530       8.44084660      -7.40966120
C        7.47767657       8.73344465      -8.37023044
O        8.29659849       7.94013682      -8.82064170
C        7.41381077      10.10384530      -8.84486844
C        8.11665416      10.74132920      -9.85064621
C        7.66364087      12.08161484      -9.87897365
C        6.71511506      12.18497623      -8.88770345
Br       5.78437244      13.74206211      -8.45378142
O        6.54665348      10.98945054      -8.25948895
H        3.28889024       0.26067344      -2.09058815
H        4.71639067       1.67077587      -3.50747481
H        1.88786261       4.93063871      -3.08920467
H        0.47263604       3.49932909      -1.67227106
H        4.43147028       7.94505052      -5.83822247
H        8.11966141       6.20901499      -7.44248968
H        7.72831234       4.05496919      -6.30859228
H        5.87243653       9.19703747      -7.21337749
H        8.86508768      10.27893884     -10.48135011
H        7.99418428      12.87166763     -10.53912998
C       -1.79180650      -1.79180650      -1.79180650
C       -3.14343257      -1.48617117      -1.93977278
C       -3.95234091      -2.29267402      -2.74429769
C       -3.40599811      -3.40788761      -3.40073311
C       -2.04421497      -3.70647102      -3.24743418
C       -1.23880327      -2.89557147      -2.44127572
N       -4.23528143      -4.22633183      -4.21674849
N       -3.75539060      -5.31555060      -4.86822240
C       -4.83350305      -5.77716603      -5.51992335
C       -4.95302170      -6.88980566      -6.37745994
C       -6.23816394      -7.09040369      -6.93273654
C       -7.33275564      -6.23687734      -6.60911507
C       -7.24104583      -5.12641833      -5.74314807
C       -5.96357988      -4.91048346      -5.21045168
N       -5.54944108      -3.94846463      -4.37888825
N       -6.36824974      -8.18470801      -7.81879535
C       -7.45062575      -8.50726484      -8.62346108
O       -8.48662853      -7.85798518      -8.71276331
C       -7.24305710      -9.70987451      -9.40959290
C       -8.02926290     -10.29335396     -10.38601272
C       -7.35154639     -11.45998576     -10.81269721
C       -6.19496458     -11.52268821     -10.07014194
Br      -4.91239673     -12.87104685     -10.19677240
O       -6.11201759     -10.46127287      -9.22230251
H       -3.57790682      -0.62648438      -1.43576063
H       -5.00619300      -2.03939056      -2.84905779
H       -1.59681815      -4.56358132      -3.74730652
H       -0.18421898      -3.13333777      -2.32667944
H       -4.09997360      -7.51752247      -6.59724720
H       -8.32052156      -6.42496983      -7.02567469
H       -8.08684439      -4.49233617      -5.51269325
H       -5.56108035      -8.79064953      -7.93112162
H       -8.97803249      -9.90919290     -10.73815124
H       -7.67289755     -12.16670830     -11.56537604
C       -1.79180650       1.79180650       1.79180650
C       -1.27547435       2.97333781       2.32056437
C       -2.07973376       3.78043503       3.12914384
C       -3.40324962       3.40225388       3.40911533
C       -3.91481289       2.21240858       2.87089871
C       -3.10559621       1.40835546       2.06169879
N       -4.21635026       4.22722334       4.23478815
N       -5.49897981       3.90347233       4.53671146
C       -5.89790578       4.93097580       5.30171086
C       -7.14909474       5.16234481       5.90884774
C       -7.25431376       6.37048793       6.63650248
C       -6.15068272       7.26317104       6.76489429
C       -4.88546189       7.04652260       6.17862773
C       -4.78521854       5.86245398       5.43684249
N       -3.73921111       5.38051150       4.75707135
N       -8.51211740       6.63256612       7.22706957
C       -8.93955913       7.79961531       7.84217722
O       -8.27983388       8.82718541       7.95035772
C      -10.29903303       7.71868258       8.34480890
C      -11.10475493       8.68430389       8.91957076
C      -12.33305003       8.05636794       9.23481139
C      -12.20420669       6.74515191       8.83843614
Br     -13.51836979       5.43497813       9.02686806
O      -10.97853147       6.52959853       8.28746297
H       -0.25232351       3.27584814       2.11198018
H       -1.66046780       4.70029006       3.53388348
H       -4.93763486       1.89879018       3.07128096
H       -3.50866643       0.48722041       1.64834935
H       -7.96313203       4.45971254       5.79189870
H       -6.24415814       8.17455296       7.35245498
H       -4.06218757       7.73958703       6.29009922
H       -9.21919263       5.90704160       7.15661726
H      -10.82414780       9.71667217       9.08455666
H      -13.20006609       8.50712345       9.69779236
C        1.79180650      -1.79180650       1.79180650
C        1.34437956      -3.05687360       2.16812337
C        2.14853568      -3.86434934       2.97642760
C        3.40265922      -3.40280636       3.40915326
C        3.84538629      -2.12901803       3.02371586
C        3.03664757      -1.32492545       2.21407746
N        4.21579444      -4.22884870       4.23371861
N        5.43254611      -3.82681240       4.67980508
C        5.85875082      -4.88330780       5.38853380
C        7.06993740      -5.06298602       6.08736387
C        7.22470917      -6.32015288       6.71644212
C        6.20182157      -7.31135528       6.66557120
C        4.97630949      -7.14940947       5.98489326
C        4.82990850      -5.91439159       5.34021492
N        3.80517674      -5.46196868       4.60964853
N        8.44671553      -6.52819645       7.39684112
C        8.92688956      -7.70679242       7.94766968
O        8.35861965      -8.79224891       7.90650845
C       10.22537905      -7.55775515       8.57939031
C       11.06555286      -8.50066416       9.14241255
C       12.19903113      -7.80270855       9.62248967
C       11.98312999      -6.47604868       9.32861607
Br      13.14922147      -5.08221291       9.74878159
O       10.79395481      -6.31510864       8.68652952
H        0.37514929      -3.42447527       1.84052727
H        1.78363857      -4.85006507       3.26093770
H        4.81395534      -1.74966301       3.34408764
H        3.38608969      -0.33851547       1.91963103
H        7.82220452      -4.28597167       6.10656708
H        6.32928533      -8.26210942       7.17977133
H        4.21445546      -7.91720763       5.96021072
H        9.08679778      -5.74186882       7.45418488
H       10.86901218      -9.56396963       9.19239482
H       13.06170232      -8.21926107      10.12401849
C       -0.00445707       0.01189536      -1.78238275
H       -0.66409135       0.67374010      -2.43557963
H        0.65740317      -0.63156657      -2.45157240
C       -0.90989263      -0.90692880      -0.91072765
C        0.90977584       0.90977584      -0.90977584
C       -0.00465871       1.77757030       0.00794375
H       -0.66225468       2.44313916      -0.64384735
H        0.64322798       2.43503045       0.67728295
C       -1.78241447       0.00034974      -0.00472694
H       -2.45427497      -0.65498947       0.64260836
H       -2.43311707       0.67328779      -0.65473579
C       -0.91132561       0.90220522       0.91563759
C       -0.01476271      -0.02253852       1.78660255
H       -0.67934791      -0.69751639       2.42135241
H        0.63392994       0.61504881       2.47327442
C        0.01484550      -1.77751727      -0.01636693
H        0.67870853      -2.42144646      -0.68295456
H       -0.62264859      -2.45592969       0.64226336
C        1.78714474       0.01002794       0.00389507
H        2.44202412       0.67113390       0.66197326
H        2.45385902      -0.65136977      -0.64189061
C        0.91606151      -0.90478549       0.90901405
