166
Properties=species:S:1:pos:R:3 pbc="F F F"
C        1.79180650       1.79180650      -1.79180650
C        2.98129995       1.28057194      -2.30750464
C        3.79046927       2.08615797      -3.11268538
C        3.40743252       3.40656514      -3.40062118
C        2.20760210       3.91173564      -2.87878242
C        1.40104374       3.10091504      -2.07369169
N        4.23667121       4.22239905      -4.21929149
N        3.91184605       5.50434092      -4.52297663
C        4.92562678       5.89448118      -5.31048447
C        5.13915644       7.13424888      -5.94688198
C        6.30730824       7.21386430      -6.74013163
C        7.21193469       6.11787972      -6.84893364
C        7.02702484       4.87297887      -6.21060852
C        5.85834542       4.78258813      -5.44358146
N        5.39427816       3.74802493      -4.73449086
N        6.52124530       8.44084660      -7.40966120
C        7.47767657       8.73344465      -8.37023044
O        8.29659849       7.94013682      -8.82064170
C        7.41381077      10.10384530      -8.84486844
C        8.11665416      10.74132920      -9.85064621
C        7.66364087      12.08161484      -9.87897365
C        6.71511506      12.18497623      -8.88770345
O        6.54665348      10.98945054      -8.25948895
H        3.28889024       0.26067344      -2.09058815
H        4.71639067       1.67077587      -3.50747481
H        1.88786261       4.93063871      -3.08920467
H        0.47263604       3.49932909      -1.67227106
H        4.43147028       7.94505052      -5.83822247
H        8.11966141       6.20901499      -7.44248968
H        7.72831234       4.05496919      -6.30859228
H        5.87243653       9.19703747      -7.21337749
H        8.86508768      10.27893884     -10.48135011
H        7.99418428      12.87166763     -10.53912998
C        5.99656095      13.38708133      -8.55270595
C        5.39477189      14.39384435      -8.27214554
Br       4.42172987      16.02169501      -7.81850309
C       -1.79180650      -1.79180650      -1.79180650
C       -3.17599255      -1.63291322      -1.76047076
C       -3.98463910      -2.43990531      -2.56476821
C       -3.40518292      -3.40841581      -3.40102010
C       -2.01107997      -3.55971302      -3.42732719
C       -1.20615579      -2.74895998      -2.62053470
N       -4.23404669      -4.22838517      -4.21592988
N       -3.72235824      -5.17953396      -5.03727140
C       -4.81508532      -5.69350018      -5.62200694
C       -4.91705224      -6.71645200      -6.58678306
C       -6.23028186      -7.00702075      -7.02400156
C       -7.36276043      -6.32633673      -6.48965090
C       -7.28703968      -5.30968171      -5.51389083
C       -5.98564496      -5.00250063      -5.09636943
N       -5.57998410      -4.09103739      -4.20577247
N       -6.34794934      -8.01011530      -8.01368846
C       -7.47738993      -8.37122363      -8.73273810
O       -8.57901117      -7.84210850      -8.63625734
C       -7.23853983      -9.45216566      -9.67181902
C       -8.06828676     -10.01823471     -10.62210811
C       -7.32677026     -11.04619844     -11.25126066
C       -6.09095755     -11.05035014     -10.64648705
O       -6.02087649     -10.08125645      -9.69346003
H       -3.63606362      -0.88766526      -1.11642295
H       -5.06420433      -2.30233340      -2.52810361
H       -1.53803175      -4.30133547      -4.06833877
H       -0.12634041      -2.87215261      -2.64574316
H       -4.03460276      -7.21333085      -6.96680966
H       -8.36736185      -6.58423109      -6.81957313
H       -8.16174629      -4.80678468      -5.12334284
H       -5.50049248      -8.50212842      -8.28023059
H       -9.08678998      -9.71317263     -10.82541402
H       -7.65830211     -11.70292989     -12.04374988
C       -5.01548322     -11.95204742     -10.96881759
C       -4.11477347     -12.70721889     -11.23876942
Br      -2.65840198     -13.92826730     -11.67525869
C       -1.79180650       1.79180650       1.79180650
C       -1.26622335       2.95780621       2.34534697
C       -2.07050520       3.76484012       3.15396730
C       -3.40335047       3.40216896       3.40909941
C       -3.92414711       2.22792408       2.84604898
C       -3.11485574       1.42386962       2.03692511
N       -4.21646400       4.22695341       4.23494434
N       -5.50796499       3.91777996       4.51341864
C       -5.90315920       4.93983579       5.28759743
C       -7.15966442       5.18077072       5.87985216
C       -7.25804264       6.37964390       6.62361763
C       -6.14358198       7.25401843       6.78114764
C       -4.87314164       7.02729136       6.21017923
C       -4.77918048       5.85276590       5.45256863
N       -3.73038004       5.36538721       4.78102671
N       -8.52047135       6.65161935       7.19966239
C       -8.93994224       7.81578660       7.82562282
O       -8.26703703       8.83185045       7.95848953
C      -10.30770288       7.74759817       8.30722346
C      -11.10770242       8.71653747       8.88438969
C      -12.34949170       8.10225060       9.17248707
C      -12.23386928       6.79517037       8.75875509
O      -11.00346999       6.56960830       8.22251469
H       -0.23582858       3.24821037       2.15611288
H       -1.64393896       4.67244910       3.57825328
H       -4.95425351       1.92652843       3.02692405
H       -3.52512146       0.51486733       1.60424739
H       -7.98200334       4.49197519       5.74076474
H       -6.23246306       8.15805425       7.38064877
H       -4.04162584       7.70646454       6.34378343
H       -9.23688815       5.93768628       7.10827707
H      -10.81460125       9.74215763       9.06861775
H      -13.21659880       8.55895933       9.62942376
C      -13.26503898       5.79673420       8.87457505
C      -14.12864360       4.96054391       8.97157426
Br     -15.52501924       3.60849494       9.12841379
C        1.79180650      -1.79180650       1.79180650
C        1.39871956      -3.09929755       2.07135941
C        2.20284080      -3.90700394       2.87946788
C        3.40231085      -3.40318364       3.40912434
C        3.79070696      -2.08672711       3.12068610
C        2.98228796      -1.28256729       2.31079522
N        4.21556865      -4.22984947       4.23294363
N        5.38051383      -3.78817621       4.77047356
C        5.82785404      -4.85908424       5.44365415
C        7.00719861      -5.01226750       6.20082119
C        7.20002711      -6.29348862       6.76778844
C        6.24087378      -7.33477256       6.60310171
C        5.04728345      -7.20110809       5.86222068
C        4.86494468      -5.94059739       5.27897294
N        3.85733582      -5.50345025       4.51600788
N        8.39281976      -6.47327945       7.50565388
C        8.90973718      -7.65374523       8.01786925
O        8.40869243      -8.76455912       7.88412546
C       10.16067197      -7.47056528       8.73128726
C       11.02205459      -8.39702308       9.28955191
C       12.08491186      -7.66693371       9.87238379
C       11.80868421      -6.33930086       9.63980966
O       10.64925169      -6.20688662       8.93945466
H        0.47198640      -3.49993488       1.66823055
H        1.88081519      -4.92616328       3.08766286
H        4.71649441      -1.67399023       3.51722135
H        3.28941387      -0.26298737       2.09183494
H        7.71079913      -4.19751635       6.30642780
H        6.39497197      -8.30538226       7.07081185
H        4.33389183      -8.00688080       5.75110119
H        8.98195721      -5.65762939       7.64326489
H       10.88524886      -9.47062781       9.26949996
H       12.94148172      -8.06390972      10.39959045
C       12.62562275      -5.23606929      10.07465620
C       13.30980877      -4.31211284      10.43884018
Br      14.41607970      -2.81815341      11.02769487
C       -0.00445707       0.01189536      -1.78238275
H       -0.66409135       0.67374010      -2.43557963
H        0.65740317      -0.63156657      -2.45157240
C       -0.90989263      -0.90692880      -0.91072765
C        0.90977584       0.90977584      -0.90977584
C       -0.00465871       1.77757030       0.00794375
H       -0.66225468       2.44313916      -0.64384735
H        0.64322798       2.43503045       0.67728295
C       -1.78241447       0.00034974      -0.00472694
H       -2.45427497      -0.65498947       0.64260836
H       -2.43311707       0.67328779      -0.65473579
C       -0.91132561       0.90220522       0.91563759
C       -0.01476271      -0.02253852       1.78660255
H       -0.67934791      -0.69751639       2.42135241
H        0.63392994       0.61504881       2.47327442
C        0.01484550      -1.77751727      -0.01636693
H        0.67870853      -2.42144646      -0.68295456
H       -0.62264859      -2.45592969       0.64226336
C        1.78714474       0.01002794       0.00389507
H        2.44202412       0.67113390       0.66197326
H        2.45385902      -0.65136977      -0.64189061
C        0.91606151      -0.90478549       0.90901405
