157
Properties=species:S:1:pos:R:3 pbc="F F F"
C        0.00000000       0.00000000       0.00000000
C        0.88140559       0.88140559      -0.88140559
C        2.26214636       0.87469424      -0.71008546
C        3.06244214       1.69544353      -1.51074816
C        2.48909660       2.52490648      -2.48877261
C        1.09840851       2.51057309      -2.65822167
C        0.29646711       1.69263253      -1.85120738
C        3.40204807       3.39970278      -3.29160821
O        4.61103772       3.39037627      -3.04694124
C        2.82757812       4.26153911      -4.41418744
O        3.65980134       5.39184387      -4.68506065
C        3.54758972       6.38007969      -3.75265115
O        2.78292076       6.33441671      -2.79234607
C        4.46753949       7.56531739      -4.02202938
N        5.37135512       7.44718162      -5.17427582
C        6.61810228       6.73157036      -4.94586577
C        4.87332607       7.87078628      -6.40858059
O        3.76482129       8.39610654      -6.51277348
C        5.67567279       7.75401279      -7.65630041
C        5.65167453       8.84751482      -8.53711433
C        6.34530456       8.80084616      -9.74894418
C        7.06554984       7.65724586     -10.08372331
Br       8.01462469       7.59244328     -11.71693641
C        7.07596186       6.55368350      -9.23077324
C        6.36242873       6.59346957      -8.02696521
H        2.72603459       0.24360368       0.04405245
H        4.14137340       1.68682342      -1.36004489
H        0.59612476       3.12858351      -3.39443715
H       -0.78258474       1.70512520      -1.98391260
H        1.81178255       4.60732385      -4.20966190
H        2.79990343       3.65016274      -5.32197810
H        5.07492965       7.73499248      -3.12651651
H        3.82312556       8.44108578      -4.15713380
H        6.97186885       6.91316030      -3.92684780
H        7.39440801       7.06614604      -5.63592647
H        6.43755728       5.66004527      -5.07309515
H        5.07681772       9.73722572      -8.28396587
H        6.30823633       9.65437393     -10.42104943
H        7.62367321       5.65406168      -9.50056532
H        6.33783696       5.70507993      -7.40385670
C       -0.88140559      -0.88140559      -0.88140559
C       -0.51865939      -1.12611362      -2.20215306
C       -1.33809251      -1.92220980      -3.00833152
C       -2.52232035      -2.48084481      -2.49961053
C       -2.86714898      -2.23616757      -1.16388673
C       -2.04884240      -1.43305831      -0.35840631
C       -3.36766221      -3.29981331      -3.42588354
O       -3.01922659      -3.42677675      -4.60235190
C       -4.62441203      -3.98542972      -2.89346291
O       -5.57028918      -4.22918300      -3.93723367
C       -6.24278988      -3.10952667      -4.32800401
O       -6.09005184      -2.00320358      -3.81642811
C       -7.21986516      -3.36527370      -5.46974740
N       -7.24527810      -4.72712323      -6.02041124
C       -6.23605875      -5.03702841      -7.02245125
C       -8.10989603      -5.63627528      -5.40652162
O       -8.87515175      -5.29335435      -4.50519520
C       -8.18694373      -7.05706483      -5.84197744
C       -9.46652912      -7.62681965      -5.94295492
C       -9.62247516      -8.96695082      -6.30566893
C       -8.49616116      -9.74235305      -6.56800480
Br      -8.70139579     -11.55306016      -7.06954843
C       -7.21835677      -9.19679519      -6.44526665
C       -7.06276494      -7.85985207      -6.06024650
H        0.39141333      -0.69982814      -2.61717102
H       -1.04658849      -2.09851767      -4.04313556
H       -3.76834997      -2.63748569      -0.71330976
H       -2.33872816      -1.23910976       0.67138486
H       -5.11202058      -3.42216422      -2.09458351
H       -4.32642706      -4.95772140      -2.48789582
H       -6.98175685      -2.67151236      -6.28316942
H       -8.21716317      -3.10863536      -5.09554661
H       -6.02933107      -4.15175470      -7.63079117
H       -6.57622137      -5.83116090      -7.68909825
H       -5.31627370      -5.34065410      -6.51376991
H      -10.34814401      -7.02613017      -5.72373513
H      -10.62082695      -9.39198574      -6.37084699
H       -6.33840047      -9.80725511      -6.63264464
H       -6.05995366      -7.47016478      -5.91665515
C       -0.88140559       0.88140559       0.88140559
C       -1.91777662       1.61570513       0.31344433
C       -2.71194867       2.43247190       1.12421325
C       -2.47789445       2.51823190       2.50664934
C       -1.43901562       1.76249694       3.06569071
C       -0.63948335       0.94914716       2.25167651
C       -3.34782727       3.43419747       3.31133432
O       -4.20925508       4.10354470       2.73555546
C       -3.17479603       3.50107770       4.82743094
O       -3.63584220       4.74806811       5.35279554
C       -2.77628968       5.78100726       5.12302361
O       -1.69260644       5.65964234       4.55743476
C       -3.29078561       7.11664341       5.64745723
N       -4.63328559       7.11524273       6.24428424
C       -5.75117875       7.22569146       5.31866820
C       -4.71293413       6.83037750       7.60938131
O       -3.70400351       6.67271137       8.29698642
C       -6.02023903       6.75016402       8.31558295
C       -6.10183583       7.35328522       9.58118263
C       -7.28152083       7.28689324      10.32668084
C       -8.38466054       6.61474091       9.80711755
Br      -9.98669511       6.53080792      10.80650135
C       -8.30901183       5.98811239       8.56329439
C       -7.11930189       6.03654871       7.82701290
H       -2.11330174       1.56730546      -0.75502138
H       -3.51445162       3.00871671       0.66507339
H       -1.20747507       1.78671503       4.12495533
H        0.17326541       0.38153152       2.69818695
H       -2.14280307       3.33914789       5.14681734
H       -3.79248394       2.71170111       5.26785922
H       -3.28543752       7.83250267       4.81849844
H       -2.56547735       7.46448283       6.39138496
H       -5.47506983       7.86311291       4.47369420
H       -6.62077250       7.67042439       5.80528363
H       -5.99846026       6.22782754       4.94440991
H       -5.23547109       7.86674104       9.99579719
H       -7.32267680       7.75328537      11.30769752
H       -9.16470243       5.44798412       8.16561367
H       -7.06327529       5.49610719       6.88739111
C        0.88140559      -0.88140559       0.88140559
C        0.91941932      -2.25626135       0.67124540
C        1.71743615      -3.05954830       1.49164937
C        2.48415911      -2.49445822       2.52415835
C        2.44554813      -1.10696462       2.71469053
C        1.64069705      -0.30330088       1.89630909
C        3.29406959      -3.41594750       3.38334197
O        3.23499273      -4.63148339       3.18187911
C        4.19817814      -2.83591528       4.46921124
O        4.44156886      -3.78484038       5.51029661
C        3.38322358      -3.94192191       6.35517507
O        2.33398383      -3.30930554       6.26639417
C        3.63109408      -4.98521229       7.43857990
N        4.91032613      -5.70515953       7.37732690
C        4.96391526      -6.85069379       6.48092936
C        5.99186833      -5.12055777       8.04026684
O        5.86157651      -4.09831971       8.71380509
C        7.34945780      -5.72890493       8.00762326
C        8.06841639      -5.75418982       9.21369747
C        9.36562258      -6.27099018       9.25848215
C        9.94839105      -6.76407647       8.09405148
Br      11.69903117      -7.47427182       8.15070138
C        9.25603120      -6.72038167       6.88400574
C        7.96462120      -6.18200991       6.83623240
H        0.33035380      -2.71461984      -0.11938781
H        1.73107396      -4.13555083       1.32161692
H        3.01302508      -0.61133017       3.49479017
H        1.60889548       0.76992265       2.06748023
H        3.80213705      -1.91773061       4.90890065
H        5.16298610      -2.60084318       4.00821500
H        2.82142870      -5.72146598       7.39354395
H        3.55484237      -4.46606703       8.40043575
H        3.99394422      -7.35598501       6.46194772
H        5.71264936      -7.57250375       6.81132741
H        5.20007364      -6.49808125       5.47254281
H        7.62003567      -5.35540173      10.12257192
H        9.90896961      -6.27473613      10.19995394
H        9.71797615      -7.08893540       5.97138867
H        7.46465061      -6.10630921       5.87581377
