149
Properties=species:S:1:pos:R:3 pbc="F F F"
C        0.00000000       0.00000000       0.00000000
C        0.88076434       0.88076434      -0.88076434
C        2.04497480       0.36506969      -1.43545783
C        2.85407939       1.17747737      -2.24145524
C        2.51395354       2.51357613      -2.51608137
C        1.32758982       3.00325333      -1.94321442
C        0.51899389       2.19843506      -1.12923584
N        3.33716597       3.33887918      -3.34481020
C        2.89900035       4.47577641      -3.98667667
O        1.76814612       4.94332506      -4.03675382
C        4.04091047       5.13221584      -4.69713854
C        5.16867346       4.12772660      -4.60826826
H        5.31127485       3.63003613      -5.57553822
N        6.41056196       4.79741670      -4.16464885
N        7.47878351       3.87903409      -4.04860949
C        8.24260396       3.56473682      -5.16492836
O        8.06754875       4.08503043      -6.26219361
C        9.26689100       2.51364070      -4.95010320
C        8.87827876       1.32899797      -4.29944011
C        9.80163581       0.30396718      -4.08981293
C       11.11300057       0.44872737      -4.53529965
C       11.50469430       1.61944793      -5.18737121
C       10.58652182       2.65596444      -5.39705902
Br      11.24430265       4.23070016      -6.22992880
C        4.67018747       3.09573265      -3.60903771
O        5.38514969       2.20881711      -3.14813842
H        2.33610422      -0.66682979      -1.25582658
H        3.73895361       0.71415453      -2.66975626
H        1.00867117       4.03293011      -2.08522259
H       -0.38599797       2.61775320      -0.69656539
H        3.77386140       5.33283063      -5.73965649
H        4.26130264       6.08196024      -4.19735782
H        6.68825416       5.46244696      -4.90061869
H        7.60808049       3.39241998      -3.16162177
H        7.85072958       1.18463567      -3.96919753
H        9.49496984      -0.61070348      -3.58706369
H       11.83314858      -0.35106326      -4.37711088
H       12.53406187       1.71641214      -5.52614700
C       -0.88076434      -0.88076434      -0.88076434
C       -1.00388375      -0.60516342      -2.23645515
C       -1.81644640      -1.41391871      -3.04264688
C       -2.51297744      -2.51530291      -2.51533069
C       -2.36354628      -2.76941389      -1.14109740
C       -1.55950467      -1.95906747      -0.32809265
N       -3.33592625      -3.34382150      -3.34110759
C       -3.70721507      -4.63124677      -3.02299160
O       -3.36998858      -5.31426058      -2.06397585
C       -4.63193170      -5.16849177      -4.06984138
C       -4.58344603      -4.14153572      -5.17968656
H       -3.98284531      -4.51608465      -6.01791923
N       -5.95505850      -3.80137420      -5.61619482
N       -5.94400348      -2.82458659      -6.63783701
C       -5.79596589      -3.21367739      -7.96262586
O       -5.71755914      -4.38802203      -8.30919162
C       -5.69337664      -2.10014207      -8.93711620
C       -4.80266529      -1.04904322      -8.65500832
C       -4.65816950       0.01222152      -9.54946795
C       -5.39160028       0.02765065     -10.73307798
C       -6.27338184      -1.01527741     -11.02285420
C       -6.42939568      -2.08165388     -10.12849573
Br      -7.70709386      -3.40892220     -10.58891555
C       -3.85499408      -2.95890196      -4.56106179
O       -3.77210040      -1.86169396      -5.10831087
H       -0.47205130       0.23079914      -2.68384884
H       -1.85511913      -1.16735428      -4.10039099
H       -2.88969663      -3.58538431      -0.65174294
H       -1.47790946      -2.18307508       0.73266392
H       -4.28114811      -6.14422949      -4.42097093
H       -5.62706420      -5.28658455      -3.62697195
H       -6.36866728      -4.64574069      -6.03691184
H       -5.95142019      -1.84039650      -6.37030554
H       -4.19895109      -1.05681893      -7.74879275
H       -3.96666855       0.82188564      -9.32654714
H       -5.27691150       0.85164124     -11.43392595
H       -6.84036074      -0.98528743     -11.95097284
C       -0.88076434       0.88076434       0.88076434
C       -0.30277705       1.83698222       1.70574306
C       -1.11410095       2.64246814       2.51644291
C       -2.51419663       2.51602534       2.51338907
C       -3.06753095       1.54221012       1.66431650
C       -2.26096077       0.72776466       0.85793936
N       -3.34091014       3.34394728       3.33599792
C       -4.67868749       3.57651210       3.10625383
O       -5.37387689       3.20574091       2.16860721
C       -5.24559949       4.41949382       4.20517154
C       -4.03793684       4.86886917       4.99786230
H       -3.81262515       5.92093207       4.78329197
N       -4.27236590       4.65743898       6.44282263
N       -3.15047505       5.04615491       7.20979712
C       -3.00454428       6.37214418       7.59558067
O       -3.83639009       7.23734891       7.34103379
C       -1.74030522       6.68475572       8.30557396
C       -0.53364505       6.22262817       7.75044362
C        0.68299600       6.50620644       8.37220549
C        0.70549244       7.25910820       9.54341184
C       -0.48787474       7.72641805      10.09722066
C       -1.71415916       7.44187279       9.48351333
Br      -3.27874152       8.06575198      10.36043811
C       -2.90010329       4.01698908       4.45786546
O       -1.78719174       3.97735994       4.97755356
H        0.77558425       1.97297754       1.72770772
H       -0.60991606       3.39090566       3.12204267
H       -4.13926375       1.36371479       1.62384533
H       -2.72709526      -0.02090933       0.22213469
H       -5.78290247       5.27663272       3.78681333
H       -5.94648987       3.80897265       4.78515818
H       -5.04077624       5.28031299       6.73023058
H       -2.41890980       4.35757014       7.38564229
H       -0.52761259       5.65695659       6.81999360
H        1.61334323       6.14719704       7.93747624
H        1.65321611       7.48531388      10.02709843
H       -0.45156812       8.31079981      11.01425308
C        0.88076434      -0.88076434       0.88076434
C        0.74614914      -2.26241896       0.83693422
C        1.55424119      -3.06906106       1.64970975
C        2.51553764      -2.51507278       2.51300063
C        2.62946972      -1.11430866       2.53027920
C        1.81820078      -0.30203198       1.72643203
N        3.34430736      -3.34026329       3.33628470
C        4.54514147      -2.93858010       3.87773187
O        5.14789243      -1.88487238       3.71546020
C        5.10023945      -4.02266473       4.74736067
C        4.21251477      -5.21705364       4.47509991
H        4.73556654      -5.94209118       3.83919147
N        3.78787039      -5.83451422       5.75024290
N        2.93625511      -6.94083325       5.52933873
C        3.48250224      -8.19568086       5.29408604
O        4.68994294      -8.41271220       5.31211765
C        2.49956020      -9.25885666       4.97221805
C        1.51766832      -8.98593418       4.00311434
C        0.58172275      -9.96012331       3.65356986
C        0.62451824     -11.21330695       4.25920241
C        1.60006949     -11.49363695       5.21780701
C        2.53993358     -10.52031453       5.57929717
Br       3.77611591     -10.98491660       6.94389910
C        3.04711524      -4.64244634       3.68539625
O        2.03102931      -5.28370386       3.42737206
H        0.02205280      -2.72918104       0.17386717
H        1.42374594      -4.14384690       1.55527155
H        3.32971489      -0.60741613       3.18969285
H        1.93033291       0.77824040       1.77622812
H        6.13892772      -4.23382089       4.47359992
H        5.06882666      -3.68320800       5.78858604
H        4.62821739      -6.21224225       6.21086017
H        1.93267354      -6.77514828       5.45430041
H        1.48511115      -8.02218107       3.49727055
H       -0.17471647      -9.74374430       2.90230222
H       -0.10121721     -11.97571088       3.98470254
H        1.61674593     -12.47719227       5.68268281
