197
Properties=species:S:1:pos:R:3 pbc="F F F"
C        0.00000000       0.00000000       0.00000000
C        0.88225748       0.88225748      -0.88225748
C        0.49074915       2.19447640      -1.15023528
C        1.28122123       2.99615219      -1.97157439
C        2.45595821       2.48761544      -2.51843414
C        2.85326513       1.17255906      -2.24008693
C        2.05991283       0.36106055      -1.42188245
C        4.08883319       0.67305129      -2.89644297
O        4.36808233       1.13631070      -3.99632943
N        4.83641523      -0.23380072      -2.16969418
C        6.03788968      -0.85697858      -2.59306054
C        6.48054394      -0.81502935      -3.90917696
C        7.69100116      -1.41636912      -4.28380920
C        8.52339095      -2.09234761      -3.37148772
C        8.04148281      -2.15311110      -2.04900181
C        6.82406264      -1.55605756      -1.66867493
Cl       6.33069365      -1.69145253      -0.01251825
C        9.82431698      -2.70681137      -3.79598837
C       10.66955838      -3.39667585      -2.90585083
C       11.87558564      -3.99764075      -3.31499954
C       12.29431561      -3.92807941      -4.63919962
N       13.46915522      -4.54476092      -5.12977095
C       14.37287687      -5.32284988      -4.43906559
O       14.37868366      -5.53399655      -3.23288346
C       15.44897222      -5.93198668      -5.27511624
C       16.69810036      -6.15519759      -4.68079079
C       17.73488716      -6.73265459      -5.41492621
C       17.52749084      -7.09415594      -6.74576523
C       16.28009192      -6.88555628      -7.33318387
Br      15.99882691      -7.39131303      -9.13381564
C       15.23459878      -6.31417957      -6.60697557
C       11.48698548      -3.22317901      -5.53846560
Cl      11.93119177      -3.07309244      -7.20841678
C       10.28418183      -2.63176702      -5.12562967
H       -0.42865712       2.60173790      -0.73959404
H        0.97286593       4.01493074      -2.19259187
H        3.05871792       3.11630691      -3.17174839
H        2.32760344      -0.67461996      -1.23537814
H        4.59747615      -0.38223158      -1.19475163
H        5.90633755      -0.32752858      -4.69139834
H        7.94756233      -1.32388269      -5.33505074
H        8.60500462      -2.66531433      -1.27511709
H       10.42460614      -3.50290277      -1.85258757
H       12.45724024      -4.51496451      -2.55769734
H       13.65421304      -4.36928840      -6.11059613
H       16.86193840      -5.87748499      -3.64078990
H       18.70109618      -6.90271929      -4.94625826
H       18.33890475      -7.54513839      -7.31162759
H       14.26127513      -6.20304662      -7.07451938
H        9.71355210      -2.11243177      -5.88812733
C       -0.88225748      -0.88225748      -0.88225748
C       -0.42340389      -2.14149687      -1.27056008
C       -1.21535739      -2.94103070      -2.09255971
C       -2.45834955      -2.48323581      -2.52042243
C       -2.92241287      -1.22229454      -2.12120371
C       -2.12848475      -0.41256556      -1.30180552
C       -4.23326793      -0.77049392      -2.65456561
O       -4.55959959      -1.17736808      -3.76375479
N       -4.98576057       0.02853457      -1.81508269
C       -6.25415145       0.59011768      -2.10993786
C       -6.78724891       0.60524355      -3.39268619
C       -8.05956717       1.14115001      -3.64002408
C       -8.86738171       1.69174591      -2.62689527
C       -8.29603373       1.69775813      -1.33909793
C       -7.01666355       1.16623684      -1.08625329
Cl      -6.41475484       1.22478653       0.53820893
C      -10.23422725       2.23752113      -2.91678785
C      -11.05737786       2.80250216      -1.92385766
C      -12.32776619       3.34069037      -2.20586860
C      -12.83577688       3.33062196      -3.50028090
N      -14.08209950       3.89221594      -3.86428169
C      -14.98387172       4.55422748      -3.05944834
O      -14.91643760       4.68236956      -1.84350253
C      -16.15648487       5.13883186      -3.77444878
C      -17.37144007       5.23016234      -3.08241584
C      -18.49540458       5.77920427      -3.70095847
C      -18.40999754       6.24393734      -5.01303993
C      -17.19724986       6.16655376      -5.69702341
Br     -17.08216536       6.81194916      -7.47111333
C      -16.06560793       5.62472956      -5.08651640
C      -12.04999635       2.74854644      -4.50082217
Cl     -12.60299195       2.67987598      -6.14340013
C      -10.78319411       2.21938099      -4.21423135
H        0.54878895      -2.50782626      -0.95363751
H       -0.85567873      -3.91748168      -2.40722812
H       -3.06302298      -3.10838180      -3.17536845
H       -2.45134506       0.58598680      -1.02300337
H       -4.68731903       0.12765454      -0.85033170
H       -6.23965098       0.21467475      -4.24523108
H       -8.38486015       1.10157876      -4.67544899
H       -8.83527439       2.11424622      -0.49377922
H      -10.74441888       2.85476750      -0.88463956
H      -12.88659923       3.76207960      -1.37545345
H      -14.32552384       3.77049337      -4.84049029
H      -17.44026298       4.87162636      -2.05660669
H      -19.43435608       5.84666605      -3.15694512
H      -19.28894437       6.67209872      -5.48854830
H      -15.12347936       5.61634916      -5.62561769
H      -10.23557248       1.79554176      -5.04921694
C       -0.88225748       0.88225748       0.88225748
C       -2.17711936       0.46536744       1.19297405
C       -2.99288008       1.27643633       1.97963140
C       -2.51417185       2.49479244       2.45304349
C       -1.20969646       2.90757224       2.14864242
C       -0.38884118       2.10053726       1.35347739
C       -0.77732252       4.24131208       2.63969286
O       -1.63979391       5.10434060       2.75658796
N        0.55899421       4.36087524       2.97042766
C        1.20201805       5.53332834       3.44266134
C        0.60549315       6.78695489       3.39322980
C        1.26036334       7.91913300       3.89967158
C        2.54226340       7.86546589       4.47932858
C        3.14444541       6.59182553       4.48999340
C        2.49376444       5.45282633       3.97761812
Cl       3.32929521       3.93562823       4.04542635
C        3.20947049       9.08926380       5.03370067
C        4.49445025       9.06425064       5.60893297
C        5.12914569      10.22095275       6.10113736
C        4.49907968      11.45932515       6.04519035
N        5.09258507      12.66805589       6.47869443
C        6.35846415      12.85846772       6.98908901
O        7.17111504      11.98467723       7.26400838
C        6.72977749      14.28233929       7.23953999
C        7.61958838      14.55667872       8.28660322
C        8.00815901      15.86967960       8.55563819
C        7.51289600      16.91515496       7.77684118
C        6.63876669      16.64097958       6.72550662
Br       5.98149067      18.06045153       5.66236867
C        6.24794486      15.33145574       6.44388390
C        3.20949655      11.50699374       5.50477489
Cl       2.33945844      13.00400630       5.40196825
C        2.58527567      10.35216749       5.01115266
H       -2.56831371      -0.47753429       0.82189541
H       -4.00651951       0.96056595       2.21330307
H       -3.16428385       3.12887601       3.05361337
H        0.60662976       2.42702750       1.06796389
H        1.12100911       3.51714008       3.01386523
H       -0.37720330       6.93688765       2.95611636
H        0.70689864       8.84979622       3.81583280
H        4.13861720       6.45055059       4.90287400
H        5.06344075       8.14258564       5.69514605
H        6.12421345      10.10398828       6.52019825
H        4.48913181      13.47896251       6.40569006
H        8.01092573      13.74214538       8.89402365
H        8.69919812      16.07405245       9.36978082
H        7.82090839      17.93563818       7.99066416
H        5.60136859      15.14112659       5.59298989
H        1.58935723      10.47845937       4.60014552
C        0.88225748      -0.88225748       0.88225748
C        2.10368113      -0.38913109       1.34264863
C        2.92143425      -1.19759692       2.12991664
C        2.51749310      -2.48939729       2.45511740
C        1.28563157      -2.97981588       2.00046366
C        0.46389508      -2.17500523       1.20395552
C        0.93666905      -4.38387418       2.33778422
O        1.86113031      -5.17930040       2.46029175
N       -0.40614122      -4.64353175       2.53491816
C       -0.97721480      -5.90332131       2.84786511
C       -0.26745006      -7.09339466       2.74874694
C       -0.85677350      -8.31730055       3.09791419
C       -2.18196555      -8.42309057       3.56140604
C       -2.89593844      -7.21011048       3.62320148
C       -2.31089793      -5.97924532       3.26833262
Cl      -3.28327806      -4.54912260       3.38591483
C       -2.77920734      -9.74329142       3.94940990
C       -4.10449019      -9.87737260       4.40585096
C       -4.67038574     -11.12264948       4.74068068
C       -3.92817622     -12.29420726       4.63940477
N       -4.44360055     -13.58237391       4.91539189
C       -5.72500962     -13.92277971       5.29132249
O       -6.63355456     -13.14805839       5.56306674
C       -5.98521514     -15.38939893       5.38791800
C       -6.93038512     -15.83051052       6.32356816
C       -7.21931298     -17.19021911       6.44625264
C       -6.56832109     -18.11600518       5.63141604
C       -5.63834395     -17.67597190       4.69009157
Br      -4.76903823     -18.93367673       3.57669102
C       -5.34582099     -16.31838566       4.55483012
C       -2.59916330     -12.18538384       4.21605154
Cl      -1.59146034     -13.58943434       4.06854210
C       -2.04337495     -10.94271020       3.87870922
H        2.43724539       0.61275712       1.08818655
H        3.87932942      -0.82110095       2.47995817
H        3.17026762      -3.11911074       3.05739486
H       -0.47069984      -2.55583083       0.80323063
H       -1.04399690      -3.85682844       2.59716466
H        0.75769528      -7.12092003       2.39159199
H       -0.21616539      -9.18731948       2.98757629
H       -3.92967390      -7.18993345       3.95454784
H       -4.75988769      -9.01778867       4.51638995
H       -5.70331969     -11.12723319       5.07605958
H       -3.76514114     -14.33037462       4.83028728
H       -7.44306438     -15.10974202       6.95856566
H       -7.95421329     -17.52426415       7.17458428
H       -6.79923661     -19.17371798       5.73091258
H       -4.65071963     -15.99863943       3.78482809
H       -1.00942017     -10.94804264       3.55062519
