121
Properties=species:S:1:pos:R:3 pbc="F F F"
C        0.00000000       0.00000000       0.00000000
C        0.88127053       0.88127053      -0.88127053
C        0.47874396       1.18553976      -2.17768522
C        1.28957569       1.99204758      -2.98139935
C        2.50489168       2.49816263      -2.49758534
C        2.89431662       2.18462466      -1.19404980
C        2.08411914       1.37720658      -0.38620366
N        3.25482361       3.29780047      -3.38125671
C        4.48175927       3.91397034      -3.17009014
O        5.10419819       3.83731196      -2.11652207
C        4.98254375       4.67142925      -4.32364743
S        4.07059817       4.76932175      -5.77425880
C        5.24038146       5.73848780      -6.56834190
C        5.16367932       6.23513793      -7.88549047
C        6.21678478       7.01069369      -8.36926126
C        7.31847496       7.29293275      -7.57718637
C        7.38362475       6.79604954      -6.27106300
C        6.33250904       6.00048195      -5.74014907
C        6.16581800       5.37813158      -4.44719213
Cl       7.37096798       5.54146792      -3.22779508
H       -0.45858892       0.80280444      -2.57252386
H        0.95491864       2.21607464      -3.99134213
H        3.82401054       2.55013498      -0.76891266
H        2.40639910       1.14488557       0.62568364
H        2.85187038       3.44250608      -4.29872338
H        4.30042963       6.01460729      -8.50715677
H        8.13771392       7.89794977      -7.95828694
H        8.25499108       7.02531874      -5.66028378
C        6.15523875       7.52378996      -9.71333876
C        6.10369396       7.95350809     -10.83900365
Br       6.02035039       8.64832596     -12.65910859
C       -0.88127053      -0.88127053      -0.88127053
C       -2.17252958      -1.19777240      -0.47166696
C       -2.97550570      -2.00603127      -1.28148565
C       -2.49555112      -2.50298917      -2.50209936
C       -1.19790260      -2.17548323      -2.89960525
C       -0.39105326      -1.36570008      -2.09077604
N       -3.37551001      -3.31143551      -3.24693527
C       -3.16174898      -3.93376116      -4.47030960
O       -2.11223992      -3.84747208      -5.09832021
C       -4.30502445      -4.71561548      -4.95698051
S       -5.76349530      -4.79486001      -4.05582342
C       -6.53401697      -5.81992959      -5.19326460
C       -7.84330203      -6.33523724      -5.10576845
C       -8.30611870      -7.16051025      -6.13011078
C       -7.50217526      -7.47090948      -7.21550934
C       -6.20492067      -6.95298355      -7.29283307
C       -5.69423977      -6.10940964      -6.26949066
C       -4.41188586      -5.46190176      -6.11735409
Cl      -3.18136934      -5.65162094      -7.30724069
H       -2.56354061      -0.82411874       0.47091997
H       -3.98097903      -2.24066287      -0.94069351
H       -0.77657310      -2.53195927      -3.83452581
H        0.61653951      -1.12318956      -2.41895097
H       -4.28804224      -3.46784893      -2.83720868
H       -8.47437545      -6.09238660      -4.25543164
H       -7.86679907      -8.11502043      -8.01213113
H       -5.58443016      -7.20529445      -8.15086899
C       -9.64028612      -7.69711986      -6.05496149
C      -10.75765134      -8.14653041      -5.99202396
Br     -12.56433639      -8.87318925      -5.89025929
C       -0.88127053       0.88127053       0.88127053
C       -0.36035836       1.43556035       2.04605023
C       -1.17147332       2.24105000       2.85049931
C       -2.50482489       2.49716664       2.49864812
C       -3.01242859       1.93445935       1.32610314
C       -2.20234843       1.12734862       0.51783234
N       -3.24451153       3.31661333       3.37275593
C       -4.56970821       3.72141646       3.27469507
O       -5.30864700       3.39815213       2.35123309
C       -5.02268144       4.57525894       4.37968005
S       -3.95031719       5.02025238       5.64360916
C       -5.13936213       5.93508115       6.47276788
C       -4.96451605       6.63699396       7.68279771
C       -6.05094163       7.32963887       8.21615923
C       -7.27965977       7.33386527       7.57506903
C       -7.44168098       6.63500058       6.37405573
C       -6.36042512       5.91514685       5.79756810
C       -6.27422682       5.12677543       4.59013947
Cl      -7.64314939       4.93402106       3.56306053
H        0.66974266       1.24886255       2.33761949
H       -0.74301291       2.66296684       3.75635566
H       -4.03644476       2.10060093       1.00601248
H       -2.61766465       0.69867863      -0.39074226
H       -2.74928908       3.65567108       4.18813968
H       -4.00169100       6.63445132       8.18605137
H       -8.12444226       7.87509079       7.99441759
H       -8.41234679       6.64670088       5.88154594
C       -5.88986817       8.04980781       9.45269149
C       -5.75496914       8.65294931      10.48828726
Br      -5.53684882       9.62817808      12.16275803
C        0.88127053      -0.88127053       0.88127053
C        2.13022793      -1.28837110       0.42336990
C        2.93330393      -2.09626165       1.23345704
C        2.49552364      -2.50262998       2.50248604
C        1.24010417      -2.08483319       2.94805372
C        0.43329852      -1.27516057       2.13907030
N        3.37181586      -3.31825709       3.24380784
C        3.19315330      -3.86399665       4.50866980
O        2.18527026      -3.68834708       5.18441488
C        4.31933020      -4.68078391       4.97750632
S        5.72050656      -4.88579313       4.00787904
C        6.49786736      -5.89119336       5.15815044
C        7.77207716      -6.48088404       5.03134653
C        8.24675990      -7.27613196       6.07384788
C        7.48817521      -7.48580382       7.21461506
C        6.22554308      -6.89468297       7.33051125
C        5.70413085      -6.07852692       6.29048230
C        4.45055130      -5.37085285       6.16973755
Cl       3.27852165      -5.43155265       7.43015669
H        2.48809135      -0.98575438      -0.55710635
H        3.90525868      -2.40260189       0.85447485
H        0.85247744      -2.36906523       3.92151550
H       -0.54105002      -0.96149986       2.50515119
H        4.25137673      -3.54509769       2.79662542
H        8.36759470      -6.31701302       4.13758597
H        7.86189493      -8.10681380       8.02524190
H        5.64050934      -7.06816636       8.23191790
C        9.54535416      -7.88778214       5.95923117
C       10.63292685      -8.40003917       5.86323968
Br      12.39143992      -9.22831547       5.70802955
