169
Properties=species:S:1:pos:R:3 pbc="F F F"
C        0.00000000       0.00000000       0.00000000
Cl       5.93079463       7.31969180       1.51943528
C        5.57512461       6.26326266       0.20580716
C        4.39862971       6.43073189      -0.51835018
C        4.11889632       5.57408734      -1.58394364
C        5.00305082       4.53916272      -1.93045618
C        6.18886720       4.39223051      -1.19171274
C        6.47281223       5.24952870      -0.12583312
C        4.72620261       3.61501095      -3.11667478
H        5.27675762       2.67459588      -2.98210346
C        5.16520918       4.26209102      -4.43443915
C        3.87649780       4.59979984      -5.11455456
N        2.80854717       4.01277150      -4.54303809
N        3.30018748       3.33884158      -3.32445718
C        2.51996744       2.52001312      -2.50830962
C        1.15828316       2.32294991      -2.79085779
C        0.34022380       1.51528519      -1.99263850
C        0.88197101       0.88197101      -0.88197101
C        2.22604917       1.04971518      -0.57009419
C        3.03098131       1.86095683      -1.38068210
C        3.76737025       5.43558176      -6.31872131
C        4.90436373       6.00712075      -6.90920023
C        4.80399740       6.81164049      -8.04983590
C        3.55630799       7.05043703      -8.61746914
C        2.41186028       6.49475170      -8.05602757
C        2.52251655       5.69463421      -6.91408107
H        3.69352956       7.21742268      -0.27076511
H        3.20147988       5.69751751      -2.16121925
H        6.89386231       3.60673528      -1.45110186
H        7.39255238       5.12229045       0.43582051
H        5.71548619       3.53540055      -5.04507079
H        5.80769731       5.13540957      -4.28084077
H        0.73005470       2.81890340      -3.65853803
H       -0.70538962       1.39973852      -2.25599728
H        2.66482642       0.56428550       0.29515585
H        4.07423462       1.97621798      -1.11014869
H        5.88667440       5.83203607      -6.48236669
H        5.70408812       7.24062864      -8.47754861
H        1.43130773       6.66977030      -8.48549639
H        1.62392792       5.26352723      -6.47662908
C        3.45096981       7.87727237      -9.79171238
C        3.36274908       8.56974697     -10.77514109
Br       3.22010363       9.68941982     -12.36526215
Cl      -3.76157537       0.76685001      -8.73632579
C       -3.56300409      -0.49227454      -7.57730149
C       -4.37389625      -0.52693117      -6.44688436
C       -4.21051094      -1.55215901      -5.51425734
C       -3.23307540      -2.54452846      -5.69506587
C       -2.43025054      -2.49572086      -6.84683906
C       -2.59282562      -1.47194912      -7.78339931
C       -3.06595270      -3.69267908      -4.69925656
H       -2.05024402      -4.10150464      -4.78170831
C       -4.07483733      -4.81273092      -4.97417110
C       -5.04259253      -4.70999162      -3.83826805
N       -4.60340635      -3.92033268      -2.84061774
N       -3.34371267      -3.30935662      -3.31041695
C       -2.51477663      -2.51011051      -2.52340304
C       -2.87402415      -2.19560151      -1.20246520
C       -2.07364145      -1.39124951      -0.38325653
C       -0.88197101      -0.88197101      -0.88197101
C       -0.48996890      -1.17240695      -2.18348269
C       -1.30276564      -1.98026632      -2.98958828
C       -6.32042853      -5.43296758      -3.76827720
C       -6.73481617      -6.27414615      -4.81172238
C       -7.95519039      -6.95656633      -4.75371708
C       -8.77695314      -6.80622733      -3.64103369
C       -8.39116093      -5.98157910      -2.58989952
C       -7.17090146      -5.30137826      -2.65895211
H       -5.13365281       0.22886882      -6.27693336
H       -4.84243480      -1.59190912      -4.62587272
H       -1.67682922      -3.26109051      -7.01377973
H       -1.96401319      -1.44754771      -8.66746142
H       -3.57395078      -5.78805147      -4.93395529
H       -4.55513011      -4.71540432      -5.95341323
H       -3.80745878      -2.59086865      -0.80916869
H       -2.40052002      -1.17843824       0.62861208
H        0.43657981      -0.78084079      -2.58969509
H       -0.97311903      -2.18604449      -4.00143776
H       -6.10775032      -6.40566698      -5.68765986
H       -8.24559910      -7.59580109      -5.58086520
H       -9.01883807      -5.85309143      -1.71464492
H       -6.87389488      -4.65521441      -1.83497495
C      -10.03270196      -7.50825734      -3.57899526
C      -11.08439159      -8.09620749      -3.52703807
Br     -12.78488477      -9.04687314      -3.44302770
Cl      -6.01105613       7.25140555      -1.53141053
C       -5.63383815       6.21030895      -0.21156699
C       -4.45240715       6.39505799       0.50024664
C       -4.15519655       5.55077131       1.57095944
C       -5.02666603       4.51108640       1.93491729
C       -6.21773791       4.34665468       1.20841786
C       -6.51916837       5.19155415       0.13745152
C       -4.73062893       3.60037566       3.12688374
H       -5.27375347       2.65381528       3.00588822
C       -5.16357153       4.25547928       4.44268855
C       -3.87189042       4.61106828       5.10789350
N       -2.80383905       4.02854250       4.53197522
N       -3.30032112       3.33906044       3.32410468
C       -2.52007356       2.51990644       2.50831017
C       -1.15413717       2.33779163       2.78016204
C       -0.33599304       1.53030760       1.98184686
C       -0.88197101       0.88197101       0.88197101
C       -2.23030039       1.03466049       0.58089767
C       -3.03523898       1.84595337       1.39142789
C       -3.75950105       5.45878868       6.30338359
C       -4.89627588       6.02537388       6.89903495
C       -4.79293700       6.84117394       8.03136285
C       -3.54238929       7.09645769       8.58536718
C       -2.39804263       6.54605812       8.01853880
C       -2.51172277       5.73455465       6.88495441
H       -3.75680878       7.18581135       0.23909721
H       -3.23375136       5.68779183       2.13867346
H       -6.91313516       3.55720575       1.48135855
H       -7.44276059       5.05084774      -0.41458601
H       -5.70161680       3.52944701       5.06489372
H       -5.81539009       5.12149433       4.28706323
H       -0.72261487       2.84552625       3.63935500
H        0.71297883       1.42666109       2.23666392
H       -2.67244486       0.53737539      -0.27586419
H       -4.08191338       1.94927011       1.12941779
H       -5.88077318       5.83749130       6.48281268
H       -5.69300020       7.26587883       8.46338635
H       -1.41527881       6.73388279       8.43741281
H       -1.61323046       5.30762837       6.44322541
C       -3.43397844       7.93492409       9.75105203
C       -3.34318435       8.63713970      10.72731310
Br      -3.19637798       9.77256296      12.30584467
Cl       3.06186834       0.36160352       9.03078633
C        3.04301063      -0.81609501       7.77347448
C        3.93241291      -0.70650441       6.70879445
C        3.91457857      -1.66640151       5.69594721
C        3.00554480      -2.73660303       5.73052189
C        2.12156654      -2.83318046       6.81806346
C        2.13842710      -1.87508990       7.83465705
C        2.99788321      -3.81418419       4.64582093
H        2.01313698      -4.29922466       4.62109533
C        4.06740164      -4.87748868       4.91684903
C        5.10269056      -4.61969175       3.86846989
N        4.67636268      -3.78923130       2.89876279
N        3.34344969      -3.30699756       3.31303899
C        2.51380703      -2.51079581       2.52368733
C        2.94085657      -2.07145272       1.25978156
C        2.14150740      -1.26568244       0.44095765
C        0.88197101      -0.88197101       0.88197101
C        0.42188425      -1.29821309       2.12576121
C        1.23477858      -2.10558764       2.93225402
C        6.43381675      -5.24260567       3.84525089
C        6.83616958      -6.12956843       4.85494670
C        8.10619454      -6.71714613       4.84213312
C        8.99099848      -6.42415477       3.80906091
C        8.61889538      -5.55101292       2.79273125
C        7.34836965      -4.96647928       2.81638291
H        4.64228039       0.11212861       6.65156557
H        4.60918920      -1.59310059       4.85792685
H        1.41894548      -3.66065064       6.87210333
H        1.44839191      -1.96310406       8.66752634
H        3.64670811      -5.87998139       4.76926803
H        4.46807503      -4.82148109       5.93439153
H        3.92735984      -2.36818022       0.91195606
H        2.52219160      -0.95342075      -0.52526618
H       -0.55840499      -1.00566520       2.48669586
H        0.85080486      -2.41104978       3.89874664
H        6.16037470      -6.37190762       5.66879482
H        8.38516201      -7.39552970       5.64157367
H        9.29548169      -5.31169913       1.97939359
H        7.06208513      -4.28191563       2.02008348
C       10.29799119      -7.02841419       3.79354918
C       11.39259758      -7.53448146       3.78055810
Br      13.16248353      -8.35274944       3.75955264
