174
Properties=species:S:1:pos:R:3 pbc="F F F"
C        4.86584385       3.66800209      -5.36650152
O        4.20619219       4.23374635      -4.24225453
C        3.44622485       3.39342732      -3.48456639
C        3.52592582       1.99489056      -3.49854650
C        2.70460576       1.20329440      -2.66594570
C        1.78913819       1.78913819      -1.78913819
C        1.70574486       3.16642822      -1.75470114
C        0.79943911       4.05484842      -0.90813615
C        1.21222668       5.38165397      -1.42532435
S        0.70547197       6.94916347      -1.15263569
C        1.82870416       7.46954799      -2.35778065
N        1.93055713       8.77712934      -2.76159834
C        1.24832822       9.85697376      -2.24895594
O        0.53015334       9.87564297      -1.25654495
C        1.44562597      11.13755704      -2.98416724
C        1.37356096      12.33720411      -2.26087372
C        1.52330658      13.56332033      -2.91081502
C        1.73643778      13.59782182      -4.28813457
C        1.79104607      12.40572719      -5.01002857
C        1.64292019      11.17411278      -4.37039817
N        2.55946775       6.52862580      -2.93181992
C        2.19339629       5.33970589      -2.38044934
C        2.53514337       3.96014795      -2.60692115
H        5.33382067       4.48435296      -5.92501058
H        4.15284912       3.17158962      -6.03347395
H        5.66023076       2.98162676      -5.05653328
H        4.22824307       1.47691996      -4.14524280
H        2.79721970       0.11996882      -2.71623853
H        1.02720959       3.94445110       0.15569409
H       -0.25448855       3.85036966      -1.11630418
H        2.61110899       8.89906052      -3.49707140
H        1.19426420      12.31737339      -1.18684227
H        1.46530392      14.48913303      -2.34326205
H        1.84639679      14.55649912      -4.78929749
H        1.64706078      10.26201733      -4.96019479
C        1.99121896      12.44675104      -6.43545758
C        2.15886376      12.48110852      -7.62925437
Br       2.42993122      12.53666166      -9.55952282
C       -4.93098160      -3.65081461      -5.31855125
O       -4.20656868      -4.23233803      -4.24328636
C       -3.44973722      -3.39205281      -3.48242853
C       -3.58288723      -1.99821900      -3.43825664
C       -2.75999585      -1.20700602      -2.60684399
C       -1.78913819      -1.78913819      -1.78913819
C       -1.65230067      -3.16238706      -1.81218649
C       -0.68031241      -4.04585752      -1.03625375
C       -1.06256423      -5.36733790      -1.58930287
S       -0.48639928      -6.92287093      -1.39800092
C       -1.63571273      -7.44105209      -2.57926797
N       -1.70375651      -8.73538237      -3.03014593
C       -0.96141143      -9.80616173      -2.58668476
O       -0.20449704      -9.83412464      -1.62371957
C       -1.13883932     -11.06473248      -3.36377845
C       -0.99290291     -12.28716454      -2.69157134
C       -1.12155454     -13.49270843      -3.38317896
C       -1.38733257     -13.48334373      -4.75171787
C       -1.51549692     -12.26781798      -5.42348693
C       -1.38907735     -11.05645708      -4.74189672
N       -2.42367281      -6.50857214      -3.08766852
C       -2.08149312      -5.32790779      -2.50415061
C       -2.48395102      -3.95529502      -2.66296643
H       -5.38931929      -4.46321228      -5.89065264
H       -4.26415436      -3.10176467      -5.99199365
H       -5.73798561      -3.00851979      -4.95188539
H       -4.32927285      -1.48418257      -4.03695040
H       -2.89552102      -0.12704408      -2.61086195
H       -0.87000671      -3.98492966       0.03896977
H        0.35608397      -3.79226290      -1.27600635
H       -2.40764941      -8.85606725      -3.74352424
H       -0.77230368     -12.30101392      -1.62516226
H       -1.00617727     -14.43636593      -2.85515580
H       -1.48053285     -14.42592107      -5.28573948
H       -1.45102963     -10.12353062      -5.29471265
C       -1.76998454     -12.26263147      -6.84081158
C       -1.98311793     -12.25828776      -8.02782097
Br      -2.32773659     -12.25126435      -9.94711476
C       -4.78135875       5.42281504       3.69617367
O       -4.24891256       4.21377929       4.21950123
C       -3.45644833       3.47775193       3.39001830
C       -2.84603984       3.95172435       2.22159869
C       -2.02779570       3.11707330       1.42897687
C       -1.78913819       1.78913819       1.78913819
C       -2.37396018       1.30930238       2.94361168
C       -2.28833090      -0.08428434       3.55837712
C       -3.18247250       0.11205744       4.72467506
S       -3.76564735      -0.88712352       5.92874731
C       -4.70061485       0.44350922       6.51190872
N       -5.57821014       0.33025604       7.56081863
C       -5.79679982      -0.78282678       8.34028488
O       -5.15951174      -1.82915285       8.33198237
C       -6.91955986      -0.66448216       9.31227255
C       -6.83460680      -1.37918516      10.51621715
C       -7.87452443      -1.32258781      11.44550531
C       -9.00882010      -0.55927022      11.17284431
C       -9.10080053       0.13771337       9.96828792
C       -8.06689951       0.08849619       9.03203544
N       -4.58033625       1.58481047       5.85476674
C       -3.70266620       1.37444582       4.83643950
C       -3.20762049       2.15868168       3.73591031
H       -5.47628791       5.83004908       4.43684723
H       -5.34390301       5.23957725       2.77443243
H       -3.99440738       6.16688748       3.53709594
H       -2.97749785       4.97892674       1.89398123
H       -1.57996289       3.52760078       0.52586338
H       -1.26416659      -0.31363773       3.86543774
H       -2.68025946      -0.83985144       2.87177727
H       -6.06632660       1.19399687       7.74691743
H       -5.95686064      -1.98766532      10.72928454
H       -7.80162321      -1.88021015      12.37628594
H       -9.81793691      -0.52413079      11.89838727
H       -8.18013813       0.60557355       8.08356122
C      -10.28282733       0.90868788       9.68191237
C      -11.27277477       1.55437903       9.44207285
Br     -12.87343606       2.59840701       9.05427263
C        4.64825456      -5.49872402       3.75336888
O        4.24916046      -4.21614400       4.21688861
C        3.44961900      -3.48250387       3.39209570
C        2.71537658      -3.99109304       2.31289326
C        1.90036777      -3.15465708       1.51882102
C        1.78913819      -1.78913819       1.78913819
C        2.49726888      -1.27371567       2.85588968
C        2.56317202       0.16363159       3.36288326
C        3.53011096      -0.01681539       4.47227865
S        4.27866060       1.01868419       5.54729472
C        5.15669717      -0.33545882       6.16387681
N        6.12060949      -0.21542882       7.13324650
C        6.48141389       0.93103373       7.80387776
O        5.92400849       2.02113952       7.75947229
C        7.66595736       0.79574213       8.69713502
C        7.72939598       1.60137715       9.84361996
C        8.83273028       1.53090318      10.69561483
C        9.88273998       0.66212966      10.40178386
C        9.82753990      -0.12649160       9.25277033
C        8.72909319      -0.06434275       8.39399521
N        4.90125271      -1.50878723       5.60987353
C        3.96344690      -1.30484252       4.64526210
C        3.32649681      -2.12603933       3.64967633
H        5.36792924      -5.90428383       4.47097115
H        5.14789789      -5.42881257       2.78120223
H        3.79867789      -6.18774329       3.71196962
H        2.74469038      -5.04675340       2.05896204
H        1.35343591      -3.59358277       0.68640838
H        1.58617741       0.49536212       3.72515131
H        2.95385089       0.83330775       2.59164215
H        6.55721259      -1.09914224       7.35088607
H        6.91834405       2.29150988      10.07164569
H        8.87496715       2.15936871      11.58210056
H       10.74205013       0.61632503      11.06646829
H        8.72853160      -0.65699674       7.48374456
C       10.92335220      -1.00766732       8.94240806
C       11.84109501      -1.74565199       8.68247966
Br      13.32500751      -2.93891077       8.26219742
C       -0.00445707       0.01189536      -1.78238275
H       -0.66409135       0.67374010      -2.43557963
H        0.65740317      -0.63156657      -2.45157240
C       -0.90989263      -0.90692880      -0.91072765
C        0.90977584       0.90977584      -0.90977584
C       -0.00465871       1.77757030       0.00794375
H       -0.66225468       2.44313916      -0.64384735
H        0.64322798       2.43503045       0.67728295
C       -1.78241447       0.00034974      -0.00472694
H       -2.45427497      -0.65498947       0.64260836
H       -2.43311707       0.67328779      -0.65473579
C       -0.91132561       0.90220522       0.91563759
C       -0.01476271      -0.02253852       1.78660255
H       -0.67934791      -0.69751639       2.42135241
H        0.63392994       0.61504881       2.47327442
C        0.01484550      -1.77751727      -0.01636693
H        0.67870853      -2.42144646      -0.68295456
H       -0.62264859      -2.45592969       0.64226336
C        1.78714474       0.01002794       0.00389507
H        2.44202412       0.67113390       0.66197326
H        2.45385902      -0.65136977      -0.64189061
C        0.91606151      -0.90478549       0.90901405
