185
Properties=species:S:1:pos:R:3 pbc="F F F"
C        0.00000000       0.00000000       0.00000000
C        0.88155600       0.88155600      -0.88155600
C        1.11213728       2.20772226      -0.52070597
C        1.91493295       3.01959369      -1.32846278
C        2.47776047       2.50802814      -2.50624693
C        2.25466072       1.16626491      -2.84675955
C        1.45368394       0.35479604      -2.03755343
C        3.31337736       3.34757288      -3.41726729
N        4.26873067       2.78997821      -4.10598741
C        4.99170139       3.59002287      -4.95599559
C        6.07943879       3.33777558      -5.78288349
C        6.76722774       2.04890163      -5.84686551
C        6.05472720       0.84142064      -5.82280730
C        6.72057640      -0.38576484      -5.89750770
C        8.10761600      -0.42190074      -6.01435978
C        8.83105682       0.76738801      -6.03469832
C        8.16663579       1.99331696      -5.93398876
C        6.32350823       4.57914406      -6.45703733
N        5.49570805       5.53393469      -6.00780236
N        4.70204246       4.94816670      -5.09740581
C        3.69212155       5.54305456      -4.35085659
C        2.96073862       4.79863441      -3.50251483
C        3.49281640       6.99790480      -4.54430989
F        3.10243828       7.31839967      -5.80206592
F        2.51424318       7.47401414      -3.72035951
F        4.59955393       7.72621149      -4.25222331
C        7.29694463       4.92597271      -7.50400339
C        7.82767737       6.22755050      -7.55656835
C        8.75397335       6.59009096      -8.53733810
C        9.16859374       5.65229774      -9.47890978
C        8.63661433       4.36486924      -9.44554678
Br       9.20530432       3.08802216     -10.71988862
C        7.69425490       4.00315953      -8.47965125
H        0.67742477       2.61711521       0.38814005
H        2.10157830       4.03953066      -1.00509780
H        2.69622615       0.74684932      -3.74880366
H        1.28375320      -0.68155671      -2.31855324
H        4.97053616       0.84126578      -5.74066223
H        6.15298229      -1.31204818      -5.86475061
H        8.62430669      -1.37560639      -6.08326166
H        9.91410111       0.74377150      -6.12515206
H        8.76153277       2.90397309      -5.92949005
H        2.14413040       5.21078799      -2.92566516
H        7.51371075       6.97471869      -6.82855996
H        9.14752108       7.60315277      -8.56281853
H        9.89659669       5.93528825     -10.23443161
H        7.27359094       3.00133983      -8.49661780
C       -0.88155600      -0.88155600      -0.88155600
C       -0.99375538      -0.60416520      -2.24264493
C       -1.80434746      -1.40642555      -3.05221641
C       -2.51439052      -2.48042275      -2.49722227
C       -2.37631450      -2.76099364      -1.13037704
C       -1.56410468      -1.95970682      -0.32222192
C       -3.41858878      -3.34309324      -3.31653550
N       -3.57308842      -4.59641516      -2.99519271
C       -4.43784536      -5.34646407      -3.75341043
C       -4.79429971      -6.68890648      -3.71689167
C       -4.19058961      -7.66339526      -2.80901001
C       -3.90652576      -7.33728921      -1.47514017
C       -3.34109410      -8.28004255      -0.61118260
C       -3.06742979      -9.56769081      -1.06495444
C       -3.33853398      -9.90692666      -2.38768251
C       -3.87997124      -8.95608705      -3.25788321
C       -5.79265438      -6.83128927      -4.73574597
N       -5.96577318      -5.67640647      -5.39526545
N       -5.14563681      -4.78467181      -4.81730634
C       -4.96788118      -3.45144611      -5.16670541
C       -4.12753458      -2.67992374      -4.45442954
C       -5.73429129      -2.96407020      -6.33666960
F       -7.07572984      -3.00089556      -6.14627847
F       -5.43516699      -1.66110836      -6.61234147
F       -5.45495127      -3.64916823      -7.47386924
C       -6.59815302      -7.99665145      -5.13211627
C       -6.99036874      -8.14687089      -6.47455659
C       -7.75517499      -9.24149089      -6.88473653
C       -8.13512293     -10.20750665      -5.95717167
C       -7.76559677     -10.05961412      -4.62181946
Br      -8.27500958     -11.37574637      -3.36245915
C       -7.01855788      -8.95601762      -4.20249019
H       -0.45140365       0.22879517      -2.68379145
H       -1.84739104      -1.18429980      -4.11451591
H       -2.90707914      -3.60015232      -0.68464768
H       -1.47284756      -2.18524172       0.73733955
H       -4.11804269      -6.34167008      -1.09275139
H       -3.11597244      -8.00584241       0.41613012
H       -2.63786487     -10.30370285      -0.39039423
H       -3.12585995     -10.91086175      -2.74630297
H       -4.05894073      -9.24481722      -4.29123797
H       -3.98200943      -1.62996053      -4.66861359
H       -6.70308738      -7.40004939      -7.21385262
H       -8.05184352      -9.33527115      -7.92637771
H       -8.72187039     -11.06261360      -6.28183256
H       -6.77098001      -8.85095848      -3.14961008
C       -0.88155600       0.88155600       0.88155600
C       -1.19150438       0.47201179       2.17704933
C       -2.00288756       1.27449991       2.98560195
C       -2.51600303       2.48278394       2.49324857
C       -2.17947238       2.89288992       1.19532288
C       -1.36656225       2.09100528       0.38846588
C       -3.41425071       3.35537837       3.30858845
N       -3.38873387       4.64589266       3.13006976
C       -4.25291526       5.40926373       3.87554086
C       -4.45205466       6.78133398       3.96670922
C       -3.63681562       7.76747015       3.25870911
C       -3.22722409       7.55756791       1.93416316
C       -2.45867451       8.51231630       1.26132844
C       -2.10324284       9.69822840       1.89860380
C       -2.49722670       9.92069898       3.21521747
C       -3.24377876       8.95431379       3.89584896
C       -5.54722444       6.93331144       4.87915374
N       -5.92690970       5.74324681       5.36728859
N       -5.14468474       4.82583108       4.77709914
C       -5.15954641       3.45054606       4.97594023
C       -4.32749836       2.66396546       4.27042403
C       -6.11407760       2.93608508       5.98486841
F       -7.40928053       3.15968501       5.65393833
F       -5.99677710       1.58371725       6.12812248
F       -5.90414479       3.45181647       7.22202747
C       -6.26236412       8.13875053       5.32580608
C       -6.79904406       8.18766670       6.62508547
C       -7.48355825       9.31677705       7.08106711
C       -7.63684959      10.41868218       6.24426948
C       -7.12316757      10.37409317       4.94976961
Br      -7.32443364      11.87386096       3.81492051
C       -6.45602899       9.23934114       4.48169555
H       -0.80309622      -0.46524337       2.56854708
H       -2.20150625       0.94378891       4.00091160
H       -2.55520306       3.83532570       0.80135038
H       -1.12036163       2.41879902      -0.61841092
H       -3.49805622       6.64407420       1.41033374
H       -2.13950015       8.32714603       0.23903855
H       -1.51493045      10.44508385       1.37194767
H       -2.22139073      10.84486778       3.71676616
H       -3.51658883       9.14742536       4.93098172
H       -4.32618241       1.58690877       4.36749238
H       -6.68965281       7.33414499       7.29319159
H       -7.89493604       9.33131818       8.08723815
H       -8.16154668      11.29893845       6.60583142
H       -6.09291090       9.22100151       3.45763616
C        0.88155600      -0.88155600       0.88155600
C        1.23019855      -2.16005930       0.45030766
C        2.03331301      -2.97224259       1.25743383
C        2.47802529      -2.50992404       2.50408622
C        2.13707007      -1.21394111       2.91667400
C        1.33589150      -0.40193296       2.10820896
C        3.30888255      -3.35485405       3.41448093
N        4.17362842      -2.78543416       4.20563371
C        4.89362988      -3.59421253       5.04987743
C        5.90276950      -3.32972177       5.96760660
C        6.49059548      -2.00565653       6.16674288
C        5.69659341      -0.84989956       6.17246217
C        6.26628992       0.41053924       6.37656858
C        7.63624922       0.53085757       6.59468339
C        8.44008373      -0.60579673       6.58726268
C        7.87345731      -1.86302549       6.35745870
C        6.18956209      -4.59711276       6.57301477
N        5.46421144      -5.57045256       6.00278110
N        4.69325002      -4.97531746       5.07904748
C        3.78073830      -5.58135451       4.22393989
C        3.05624032      -4.82861466       3.37703287
C        3.67372879      -7.05638953       4.30491278
F        3.22411226      -7.49158390       5.50720771
F        2.78907562      -7.53657682       3.38296439
F        4.84686318      -7.68626421       4.04486134
C        7.11317349      -4.95222825       7.66151899
C        7.73112103      -6.21582424       7.66485096
C        8.61337064      -6.58498318       8.68304859
C        8.89583364      -5.69146818       9.71249943
C        8.27637576      -4.44341292       9.72724166
Br       8.66561897      -3.22602585      11.12157029
C        7.37720516      -4.07722071       8.72263982
H        0.88768172      -2.53140684      -0.51268862
H        2.31377756      -3.95161492       0.88081428
H        2.48614326      -0.83167352       3.87406236
H        1.07371690       0.59792990       2.44496274
H        4.62310321      -0.91634222       6.01301873
H        5.63723167       1.29676369       6.36521675
H        8.07749340       1.50957679       6.76404535
H        9.51017352      -0.51636930       6.75648185
H        8.53105773      -2.72920250       6.33473568
H        2.31166857      -5.25203564       2.71687934
H        7.52088716      -6.92820887       6.86789337
H        9.07592642      -7.56868272       8.66888324
H        9.59010266      -5.97857359      10.49764030
H        6.88563162      -3.10956420       8.77635276
