145
Properties=species:S:1:pos:R:3 pbc="F F F"
C        0.00000000       0.00000000       0.00000000
C        0.88080040       0.88080040      -0.88080040
C        0.32491150       1.56844028      -1.95200038
C        1.13584985       2.38143007      -2.75514710
C        2.51416741       2.51525182      -2.50975184
C        3.04562505       1.80627013      -1.42313327
C        2.23797168       0.99823013      -0.61112645
N        3.32106104       3.35567574      -3.33340429
C        2.74469433       4.20822506      -4.35043213
C        3.91612785       4.82743356      -5.08102954
H        3.72952242       5.89570754      -5.25294309
C        5.10865701       4.66435647      -4.15847606
C        4.69384273       3.58847334      -3.18662697
O        5.49172190       3.06002796      -2.42607072
C        4.11279979       4.21631749      -6.46165911
O        3.88397087       4.90544725      -7.45325738
N        4.49899834       2.89200350      -6.47984013
C        4.76607185       2.09671061      -7.62073780
C        4.71753405       2.55843775      -8.93735478
C        4.99271152       1.69034273     -10.00210427
C        5.31969087       0.35796144      -9.75290135
Br       5.68027217      -0.80494218     -11.19825396
C        5.38131998      -0.11847920      -8.44871972
C        5.10542177       0.75401818      -7.40019300
F        5.16367645       0.29107968      -6.14127492
H       -0.73637555       1.48408414      -2.17355721
H        0.64706639       2.90016338      -3.57413591
H        4.09735727       1.86459856      -1.16017387
H        2.68644898       0.47158840       0.22702901
H        2.15300263       4.98233718      -3.84787602
H        2.10066226       3.63282846      -5.02300073
H        6.02327499       4.37142021      -4.68135337
H        5.29142624       5.58084826      -3.58797681
H        4.59298171       2.39312747      -5.59827295
H        4.47222188       3.58820588      -9.17791194
H        4.94668614       2.06983898     -11.02079984
H        5.63639210      -1.15019901      -8.23283694
C       -0.88080040      -0.88080040      -0.88080040
C       -2.05593898      -1.41815335      -0.37125983
C       -2.86562636      -2.22168587      -1.18511479
C       -2.51338977      -2.50999166      -2.51578964
C       -1.32006894      -1.95529293      -2.99966658
C       -0.51036908      -1.14391724      -2.19304193
N       -3.35632966      -3.32252749      -3.33128393
C       -4.66075664      -3.75952056      -2.88307432
C       -5.17391435      -4.69312952      -3.95754707
H       -6.23102212      -4.48148325      -4.16566768
C       -4.34558958      -4.39380524      -5.19209472
C       -3.13126330      -3.66852480      -4.66915494
O       -2.15224174      -3.45596284      -5.36961601
C       -5.12458009      -6.14962714      -3.51656916
O       -6.18115290      -6.74480890      -3.31671371
N       -3.86279283      -6.67604523      -3.33200391
C       -3.53848358      -7.99932471      -2.94571197
C       -4.47367690      -9.01256007      -2.72708962
C       -4.05331900     -10.29181192      -2.34002760
C       -2.69567764     -10.56214423      -2.17273179
Br      -2.14219836     -12.28939215      -1.64199345
C       -1.74887516      -9.56896182      -2.39372351
C       -2.17965810      -8.30249539      -2.77747946
F       -1.26338407      -7.34412092      -2.98852606
H       -2.35636441      -1.21975951       0.65485811
H       -3.77521573      -2.60941799      -0.73673195
H       -0.98312265      -2.12060050      -4.01840655
H        0.40275854      -0.72567929      -2.60808762
H       -5.30469116      -2.87589864      -2.80262603
H       -4.59318356      -4.25430982      -1.90899807
H       -4.04507488      -5.29142817      -5.73954551
H       -4.87808841      -3.71544976      -5.86671315
H       -3.05316487      -6.07315082      -3.45806644
H       -5.53975927      -8.84868455      -2.84989588
H       -4.79875330     -11.06642217      -2.17214949
H       -0.68810360      -9.75888383      -2.27204261
C       -0.88080040       0.88080040       0.88080040
C       -2.14637533       1.25302881       0.44594802
C       -2.95505340       2.05704289       1.26033072
C       -2.51282342       2.51026759       2.51608007
C       -1.22984058       2.11992544       2.92526244
C       -0.41968710       1.30887800       2.11876315
N       -3.35520338       3.32030246       3.33463525
C       -4.73299780       3.58743724       2.98291648
C       -5.23714936       4.57409854       4.01334305
H       -6.24358842       4.28819120       4.34639342
C       -4.27248863       4.47934871       5.17965219
C       -3.04413980       3.81968673       4.60511652
O       -1.98823310       3.77050536       5.21908212
C       -5.37688442       5.97657716       3.43731481
O       -6.50235384       6.44847473       3.29184693
N       -4.19750836       6.59553440       3.07779921
C       -4.04629410       7.89694651       2.54027965
C       -5.09573171       8.79222458       2.32537029
C       -4.84497455      10.05879710       1.78138687
C       -3.54304243      10.43467539       1.45283584
Br      -3.21917400      12.14267989       0.71173008
C       -2.48392429       9.56057118       1.66706503
C       -2.74661151       8.30536679       2.20765465
F       -1.72218592       7.46191824       2.41192690
H       -2.51835551       0.92458128      -0.52167098
H       -3.93675297       2.31174609       0.87286662
H       -0.81900316       2.41821495       3.88491159
H        0.56554468       1.02089647       2.47565659
H       -5.28848968       2.64465899       3.05006716
H       -4.80608458       3.98481745       1.96558941
H       -4.01556263       5.45179626       5.60868968
H       -4.66887767       3.82687464       5.96449901
H       -3.32266601       6.08574602       3.17597011
H       -6.12377487       8.54414224       2.57042259
H       -5.67752806      10.74034534       1.61945156
H       -1.46368421       9.83407883       1.42126700
C        0.88080040      -0.88080040       0.88080040
C        0.57609946      -1.04302652       2.22622617
C        1.38383366      -1.85776813       3.03082523
C        2.51237113      -2.51625205       2.51054790
C        2.79498169      -2.33013636       1.14991040
C        1.98592120      -1.52322148       0.33818558
N        3.31667218      -3.34928627       3.34418263
C        2.93351458      -3.66714832       4.70268862
C        4.09071195      -4.44926208       5.28461692
H        3.71427021      -5.30813623       5.85576660
C        4.89150664      -4.94427804       4.09570485
C        4.44952617      -4.07073526       2.94868161
O        5.04062752      -4.05844587       1.87874719
C        4.89826259      -3.61930500       6.27320880
O        4.86153429      -3.91574882       7.46539239
N        5.58490857      -2.55025698       5.73567643
C        6.41937062      -1.63794586       6.42620379
C        6.71483390      -1.70972616       7.78876652
C        7.54852133      -0.75339574       8.38324145
C        8.09125808       0.27656844       7.61586401
Br       9.20735613       1.56520413       8.43143195
C        7.81560974       0.36024421       6.25619496
C        6.98577357      -0.59576429       5.67809510
F        6.71933269      -0.51182197       4.36487640
H       -0.28626807      -0.54475339       2.66278050
H        1.09493504      -1.95343369       4.07299695
H        3.64091125      -2.81191500       0.66930345
H        2.23371734      -1.41127089      -0.71397985
H        2.03120951      -4.28860875       4.66339756
H        2.72710380      -2.75609684       5.27329081
H        5.97265594      -4.86452849       4.23886413
H        4.63067874      -5.97902369       3.85054889
H        5.49011289      -2.35182451       4.74244473
H        6.31862504      -2.49633316       8.42338150
H        7.76390457      -0.82613199       9.44728839
H        8.22965776       1.15141303       5.64078531
