181
Properties=species:S:1:pos:R:3 pbc="F F F"
C        0.00000000       0.00000000       0.00000000
C        0.87129574       0.87129574      -0.87129574
C        2.00327116       1.49919935      -0.42237267
C        2.61968287       2.24635916      -1.46874783
C        1.95040042       2.13759022      -2.67988377
S        0.53896272       1.17246556      -2.50243539
C        2.33572153       2.79279148      -3.93326241
O        3.07777244       3.77534315      -3.94394228
C        1.71618562       2.28744905      -5.14444031
O        0.97737956       3.20929542      -5.84491587
C        0.38791208       2.57346276      -6.88273076
C       -0.45062479       3.17850116      -7.81680605
C       -0.97002341       2.35253640      -8.81733291
C       -0.64815244       0.99470124      -8.85579777
Br      -1.37528894      -0.09037362     -10.22632538
C        0.20671734       0.41353442      -7.90653799
C        0.73834889       1.23138813      -6.88731083
C        1.65268926       1.05491736      -5.79293158
N        2.31234456      -0.14886755      -5.53666832
C        3.45731871      -0.28798600      -4.77500104
O        3.98238141       0.60360381      -4.11294825
C        4.11310835      -1.66906834      -4.87992094
N        3.53559284      -2.67566970      -3.95455110
C        3.63071788      -2.22023372      -2.55130534
C        3.14566974      -3.28550251      -1.56309925
C        3.90918892      -4.59125310      -1.73589489
C        3.83524512      -5.04522295      -3.18646789
C        4.29125416      -3.93582654      -4.13346887
H        2.37731138       1.43994775       0.59231935
H        3.52878173       2.82811382      -1.35755216
H       -0.68099809       4.23643940      -7.76556276
H       -1.62861591       2.78501162      -9.56770952
H        0.45415128      -0.64140228      -7.95980798
H        2.02702592      -0.94839047      -6.08991320
H        5.18843239      -1.53372219      -4.70502878
H        4.00088742      -2.01608154      -5.91521693
H        3.00401955      -1.33435078      -2.40310958
H        4.66269429      -1.94005094      -2.30270662
H        3.26915086      -2.92060676      -0.53696618
H        2.07354626      -3.46619660      -1.71125003
H        4.95772377      -4.44665913      -1.44638317
H        3.49725703      -5.36313859      -1.07672146
H        4.46649722      -5.93061154      -3.32640752
H        2.80782097      -5.34193997      -3.42972587
H        5.36615996      -3.76418815      -3.98241804
H        4.16347454      -4.29356227      -5.16252259
C       -0.87129574      -0.87129574      -0.87129574
C       -0.92458644      -2.23615228      -0.76410447
C       -1.83638791      -2.78583744      -1.71256451
C       -2.46256435      -1.81869378      -2.48661629
S       -1.87632205      -0.25370132      -2.08384030
C       -3.44237346      -2.07245670      -3.54694527
O       -3.53495830      -3.17519645      -4.08690312
C       -4.22108800      -0.93251372      -3.99447326
O       -4.08269936      -0.62340338      -5.32548810
C       -4.78306614       0.50760364      -5.56864310
C       -4.87507650       1.13821873      -6.80782465
C       -5.64402195       2.30400809      -6.85983203
C       -6.27725021       2.78908220      -5.71417856
Br      -7.30747806       4.37351592      -5.82670068
C       -6.17448219       2.12809954      -4.48040710
C       -5.39999163       0.95111718      -4.40817341
C       -5.08674673      -0.01865548      -3.39513600
N       -5.62048263       0.02587768      -2.10554037
C       -5.67923917      -1.03890101      -1.22619358
O       -5.15769988      -2.13668156      -1.40455202
C       -6.55023252      -0.78196161       0.00823318
N       -5.83641054      -0.08578745       1.10772375
C       -4.64301348      -0.84915726       1.53038124
C       -3.94796203      -0.21406616       2.73876170
C       -4.90574484      -0.06021267       3.91212680
C       -6.14707167       0.70080685       3.46977477
C       -6.78031519       0.05182091       2.23959779
H       -0.34804223      -2.81984263      -0.05705491
H       -2.04995755      -3.84415561      -1.82033456
H       -4.37593336       0.73753268      -7.68260340
H       -5.74297926       2.82743129      -7.80855725
H       -6.68337043       2.51445800      -3.60364454
H       -6.15554506       0.85208170      -1.86508529
H       -6.94442069      -1.75238125       0.33706296
H       -7.41174940      -0.17994341      -0.30833000
H       -3.91090638      -0.87820355       0.71633158
H       -4.91030306      -1.88635908       1.77131217
H       -3.09395886      -0.83154685       3.03999544
H       -3.54893013       0.76956862       2.46076181
H       -5.19287710      -1.05097911       4.28640840
H       -4.41439036       0.46541380       4.73813667
H       -6.87498410       0.72339898       4.28929192
H       -5.88327888       1.74157464       3.24609737
H       -7.18143623      -0.93007937       2.52712575
H       -7.63203774       0.66977397       1.92982890
C       -0.87129574       0.87129574       0.87129574
C       -0.43744571       1.45493984       2.03245764
C       -1.47693410       2.22232152       2.63553424
C       -2.65298602       2.21657107       1.89831732
S       -2.48698525       1.21783237       0.50904605
C       -3.89505718       2.90497488       2.26174337
O       -4.12075642       3.25615744       3.42014401
C       -4.88256425       3.05640514       1.20910559
O       -6.09711237       2.46876177       1.46571671
C       -6.87116768       2.60741587       0.36552206
C       -8.17411948       2.12930891       0.24125403
C       -8.81266557       2.36624127      -0.97906095
C       -8.15580271       3.05012190      -2.00357803
Br      -9.05537351       3.34793444      -3.64264513
C       -6.84569148       3.52853613      -1.84743786
C       -6.18413688       3.29614306      -0.62323209
C       -4.91112825       3.64418817      -0.05477821
N       -3.97344859       4.44127069      -0.71457395
C       -2.93299575       5.12076032      -0.10942231
O       -2.60947910       5.01829428       1.07116009
C       -2.22572783       6.12453422      -1.02630111
N       -1.16393528       5.51851580      -1.86797684
C       -0.14305071       4.85121087      -1.03247208
C        1.02472654       4.31322333      -1.86523031
C        1.67238661       5.41660633      -2.69038901
C        0.61674428       6.12228561      -3.52905126
C       -0.54378196       6.60470010      -2.65958557
H        0.55982983       1.34454761       2.44022200
H       -1.37457844       2.77811892       3.56175035
H       -8.66190244       1.60448501       1.05461663
H       -9.83149027       2.01046270      -1.11784775
H       -6.35600920       4.06788967      -2.65134190
H       -4.17543205       4.67316931      -1.68005271
H       -1.82500035       6.92300875      -0.38827013
H       -2.98626772       6.58429724      -1.67054216
H       -0.58760137       3.99659120      -0.51141422
H        0.24419303       5.53850199      -0.26895899
H        1.77288131       3.86188140      -1.20348982
H        0.66758417       3.51885974      -2.53267588
H        2.15876943       6.13927996      -2.02306273
H        2.45266916       5.00033787      -3.33682882
H        1.06941794       6.97700871      -4.04529756
H        0.24262265       5.44130892      -4.30307940
H       -0.17939028       7.40277890      -1.99777933
H       -1.29881011       7.05159550      -3.31797075
C        0.87129574      -0.87129574       0.87129574
C        2.20833021      -1.06939866       0.64711432
C        2.76710237      -1.93390286       1.63378464
C        1.84240796      -2.33913347       2.58633299
S        0.28647261      -1.70574943       2.22164163
C        2.11310075      -3.23082359       3.71785108
O        3.08950679      -3.98096784       3.72658325
C        1.11784058      -3.25647285       4.77376155
O        0.54621555      -4.48445736       5.00091793
C       -0.42076776      -4.33109063       5.93378274
C       -1.23057878      -5.35580505       6.41945615
C       -2.18010856      -4.99913235       7.38082211
C       -2.28948485      -3.67687599       7.81495543
Br      -3.59106316      -3.23485841       9.11686757
C       -1.45407369      -2.66621811       7.31464534
C       -0.49138489      -3.00711263       6.34132012
C        0.55090086      -2.31644145       5.63319589
N        0.86663611      -0.97500188       5.85850733
C        2.05981588      -0.36543854       5.51907934
O        2.95824941      -0.88148856       4.85919550
C        2.23899013       1.03351354       6.11848435
N        1.61290394       2.11213918       5.31370947
C        2.14916653       2.12345676       3.93607973
C        1.60576970       3.29577139       3.11326818
C        1.89204480       4.62883145       3.79061737
C        1.36531172       4.60695150       5.21812984
C        1.90393495       3.39927670       5.98423824
H        2.76530313      -0.63191707      -0.17228042
H        3.80794873      -2.23841215       1.66808683
H       -1.12164114      -6.37519485       6.06745037
H       -2.83246575      -5.76918332       7.78738765
H       -1.54672902      -1.64639915       7.67288684
H        0.24239741      -0.45884699       6.46730425
H        3.31707237       1.19970270       6.24236930
H        1.80104417       1.02598280       7.12496143
H        1.86087891       1.20385993       3.41575937
H        3.24610342       2.16708467       3.94633122
H        2.05739486       3.28650645       2.11462186
H        0.52328717       3.18030667       2.97561920
H        2.97358855       4.81418967       3.79804893
H        1.42940219       5.44801319       3.22945089
H        1.65982206       5.52953841       5.73200954
H        0.26892991       4.58127670       5.20795366
H        2.98698448       3.52463148       6.12203685
H        1.44977123       3.40006784       6.98273147
