194
Properties=species:S:1:pos:R:3 pbc="F F F"
C        1.79217523       1.79217523      -1.79217523
C        1.20634777       2.58766501      -2.77691549
C        2.00729437       3.40820123      -3.57156054
C        3.39032668       3.42583780      -3.38153132
C        3.97695243       2.61243050      -2.40372410
C        3.17331724       1.79837635      -1.59738565
C        5.45191191       2.66790333      -2.22507183
O        6.05714097       3.71046025      -2.44461850
N        6.06185362       1.49030286      -1.84514435
C        7.49806956       1.40062581      -1.67252167
C        8.23526071       1.35986689      -3.00805046
C        9.74143184       1.19569398      -2.80972782
C       10.47872862       1.28530284      -4.14303727
N       11.90733244       1.11316686      -3.98046216
C       12.48346884      -0.13954231      -3.96409529
O       11.84478746      -1.18289120      -4.04134728
C       13.96800987      -0.17980519      -3.89595289
C       14.70661092       0.79423370      -3.20881456
C       16.10151161       0.72289743      -3.18245591
C       16.76028868      -0.32011467      -3.83473369
C       16.02196959      -1.29660307      -4.50265973
C       14.63039933      -1.23684479      -4.53228906
H        0.12947809       2.58302477      -2.92605237
H        1.55521517       4.03807353      -4.33458513
H        4.01184231       4.07356357      -3.99714226
H        3.61081009       1.19906002      -0.80416680
H        5.53383621       0.62818532      -1.85976449
H        7.69438308       0.49078698      -1.09429352
H        7.83012843       2.26099284      -1.08006943
H        8.03754091       2.28038854      -3.56965640
H        7.85035746       0.53341961      -3.61798189
H        9.94711798       0.23157123      -2.32822114
H       10.11889090       1.97205063      -2.13199801
H       10.32478854       2.26987879      -4.59774571
H       10.10482961       0.52768905      -4.84091861
H       12.49114851       1.93608449      -4.03568699
H       14.21033711       1.59624886      -2.66922391
H       16.67571874       1.47561982      -2.64724709
H       17.84616284      -0.36785425      -3.81034469
H       14.05505919      -2.00026990      -5.05188271
C       16.70507372      -2.37416292      -5.17036739
C       17.27717343      -3.27661929      -5.72957255
Br      18.20221028      -4.73581492      -6.63376000
C       -1.79217523      -1.79217523      -1.79217523
C       -1.43207395      -3.12069712      -2.01815721
C       -2.24520877      -3.93390486      -2.80794252
C       -3.41159445      -3.41392219      -3.37217917
C       -3.76081352      -2.07454391      -3.15774960
C       -2.95260015      -1.26123289      -2.35524619
C       -5.01627800      -1.56160013      -3.76700894
O       -5.97065743      -2.31290381      -3.92865847
N       -5.00621451      -0.23740293      -4.15368339
C       -6.15341552       0.37539032      -4.79319185
C       -6.29710825      -0.05623866      -6.24983114
C       -7.46908830       0.65105796      -6.92882330
C       -7.68148551       0.11717207      -8.34275528
N       -8.77652456       0.78776730      -9.01220421
C       -8.58616281       1.97151306      -9.69337207
O       -7.51148181       2.55828976      -9.75005148
C       -9.76459525       2.50585974     -10.42542206
C      -11.07426337       2.32326127      -9.95865707
C      -12.15223580       2.83230257     -10.68693172
C      -11.92641100       3.52727600     -11.87577269
C      -10.62173276       3.72191659     -12.32821008
C       -9.53934215       3.22140576     -11.60790723
H       -0.52825938      -3.53339744      -1.57689842
H       -1.97467893      -4.97342965      -2.97976525
H       -4.04862283      -4.05315909      -3.98076623
H       -3.23697192      -0.23481019      -2.14225480
H       -4.13346604       0.27300332      -4.16132330
H       -6.01701188       1.46034767      -4.72279937
H       -7.05149051       0.10579838      -4.22549856
H       -6.44318962      -1.14145476      -6.30294148
H       -5.36927659       0.16071146      -6.79319384
H       -7.28142007       1.73164449      -6.95713476
H       -8.38623833       0.50683687      -6.34353807
H       -7.92929854      -0.94940752      -8.31370697
H       -6.77058781       0.23714131      -8.93999077
H       -9.65115902       0.28962522      -9.10138618
H      -11.26803199       1.81191531      -9.01969321
H      -13.16836761       2.69445884     -10.32467688
H      -12.77084646       3.91937684     -12.43718366
H       -8.52164615       3.37552138     -11.96054722
C      -10.39235898       4.44391543     -13.55283465
C      -10.20025844       5.04858947     -14.57845772
Br      -9.88964811       6.02629624     -16.23680349
C       -1.79217523       1.79217523       1.79217523
C       -3.16926801       1.82857760       1.57308267
C       -3.97965225       2.61866308       2.38874082
C       -3.40912688       3.37244845       3.41612047
C       -2.02388931       3.34729976       3.62191795
C       -1.21133578       2.54526999       2.81247346
C       -1.45615951       4.15552389       4.73320366
O       -2.11431537       4.34950024       5.74840411
N       -0.19725660       4.67848392       4.52156031
C        0.45369000       5.51422383       5.51068320
C       -0.13285217       6.92253507       5.54779082
C        0.60924672       7.81041024       6.54569012
C       -0.06564206       9.17387062       6.66755605
N        0.63310742      10.03907530       7.59499358
C        1.69839640      10.81572378       7.19069444
O        2.15484835      10.80493598       6.05315590
C        2.26410799      11.73811182       8.21015374
C        2.28138017      11.41615554       9.57488381
C        2.81175803      12.31994911      10.49867387
C        3.32953493      13.54065075      10.06379187
C        3.32641531      13.85036844       8.70407312
C        2.80301596      12.95482608       7.77403349
H       -3.62051575       1.23944115       0.77859833
H       -5.05536749       2.64357037       2.22893597
H       -4.04489661       3.98117287       4.05647867
H       -0.14208260       2.47999940       2.99195491
H        0.21150651       4.63548920       3.59780332
H        1.51815463       5.54511045       5.25250776
H        0.35299220       5.03354815       6.49063474
H       -1.19444085       6.87573629       5.81740872
H       -0.08436512       7.36993507       4.54745878
H        1.65194597       7.93203105       6.22682526
H        0.63644664       7.32818172       7.53120446
H       -1.08795307       9.06030152       7.04415845
H       -0.11754516       9.66603586       5.68985624
H        0.22494577      10.17916335       8.50870241
H        1.91115060      10.45793453       9.92902594
H        2.82895019      12.07046069      11.55707515
H        3.73953616      14.23895812      10.78923132
H        2.80287483      13.19638973       6.71315710
C        3.86615333      15.10886299       8.25856853
C        4.31818391      16.16285218       7.88545843
Br       5.04907914      17.86706355       7.28217096
C        1.79217523      -1.79217523       1.79217523
C        3.09986000      -2.07410120       1.39696707
C        3.91382465      -2.86391435       2.20931715
C        3.41519750      -3.37230003       3.41019828
C        2.09592898      -3.10190293       3.79527512
C        1.28243839      -2.29922250       2.98741834
C        1.60585823      -3.65261026       5.08641857
O        2.38308299      -3.80831735       6.02081939
N        0.27022793      -3.99482008       5.13225282
C       -0.32419200      -4.57590782       6.31950121
C        0.06455826      -6.04076730       6.49785250
C       -0.62471205      -6.65732591       7.71423978
C       -0.13012941      -8.08072349       7.95647465
N       -0.78500695      -8.69147344       9.09449497
C       -1.99592732      -9.33840782       8.96554132
O       -2.61991320      -9.41020528       7.91295145
C       -2.51393969     -10.01355248      10.18454478
C       -2.27252376      -9.51095418      11.47122875
C       -2.76850203     -10.18643244      12.58893455
C       -3.50882860     -11.35801503      12.42572126
C       -3.76164186     -11.84573604      11.14393207
C       -3.27459127     -11.17807831      10.02235656
H        3.49613261      -1.67645237       0.46597026
H        4.93758374      -3.07915254       1.91113755
H        4.05535406      -3.98099202       4.04620206
H        0.27356563      -2.04285069       3.29762060
H       -0.26911447      -4.01364371       4.27725677
H       -1.41025788      -4.47366000       6.21606146
H       -0.00639652      -3.98874972       7.18883750
H        1.15176717      -6.12544669       6.61037199
H       -0.20086091      -6.60634987       5.59627001
H       -1.71132958      -6.65548314       7.56275679
H       -0.43094160      -6.04777574       8.60610540
H        0.94453559      -8.07941100       8.16846645
H       -0.29985231      -8.70282085       7.07046873
H       -0.26099114      -8.76889431       9.95501682
H       -1.72480009      -8.58386334      11.61674663
H       -2.58501602      -9.79624744      13.58735423
H       -3.89040909     -11.87830068      13.30076169
H       -3.47407217     -11.55816441       9.02257976
C       -4.53024346     -13.05227282      10.97924883
C       -5.17394730     -14.06274737      10.84132663
Br      -6.21476198     -15.69659926      10.61831808
C       -0.00445707       0.01189536      -1.78238275
H       -0.66409135       0.67374010      -2.43557963
H        0.65740317      -0.63156657      -2.45157240
C       -0.90989263      -0.90692880      -0.91072765
C        0.90977584       0.90977584      -0.90977584
C       -0.00465871       1.77757030       0.00794375
H       -0.66225468       2.44313916      -0.64384735
H        0.64322798       2.43503045       0.67728295
C       -1.78241447       0.00034974      -0.00472694
H       -2.45427497      -0.65498947       0.64260836
H       -2.43311707       0.67328779      -0.65473579
C       -0.91132561       0.90220522       0.91563759
C       -0.01476271      -0.02253852       1.78660255
H       -0.67934791      -0.69751639       2.42135241
H        0.63392994       0.61504881       2.47327442
C        0.01484550      -1.77751727      -0.01636693
H        0.67870853      -2.42144646      -0.68295456
H       -0.62264859      -2.45592969       0.64226336
C        1.78714474       0.01002794       0.00389507
H        2.44202412       0.67113390       0.66197326
H        2.45385902      -0.65136977      -0.64189061
C        0.91606151      -0.90478549       0.90901405
