186
Properties=species:S:1:pos:R:3 pbc="F F F"
C        1.79217523       1.79217523      -1.79217523
C        1.20634777       2.58766501      -2.77691549
C        2.00729437       3.40820123      -3.57156054
C        3.39032668       3.42583780      -3.38153132
C        3.97695243       2.61243050      -2.40372410
C        3.17331724       1.79837635      -1.59738565
C        5.45191191       2.66790333      -2.22507183
O        6.05714097       3.71046025      -2.44461850
N        6.06185362       1.49030286      -1.84514435
C        7.49806956       1.40062581      -1.67252167
C        8.23526071       1.35986689      -3.00805046
C        9.74143184       1.19569398      -2.80972782
C       10.47872862       1.28530284      -4.14303727
N       11.90733244       1.11316686      -3.98046216
C       12.48346884      -0.13954231      -3.96409529
O       11.84478746      -1.18289120      -4.04134728
C       13.96800987      -0.17980519      -3.89595289
C       14.70661092       0.79423370      -3.20881456
C       16.10151161       0.72289743      -3.18245591
C       16.76028868      -0.32011467      -3.83473369
C       16.02196959      -1.29660307      -4.50265973
Br      16.91880085      -2.71130590      -5.37927732
C       14.63039933      -1.23684479      -4.53228906
H        0.12947809       2.58302477      -2.92605237
H        1.55521517       4.03807353      -4.33458513
H        4.01184231       4.07356357      -3.99714226
H        3.61081009       1.19906002      -0.80416680
H        5.53383621       0.62818532      -1.85976449
H        7.69438308       0.49078698      -1.09429352
H        7.83012843       2.26099284      -1.08006943
H        8.03754091       2.28038854      -3.56965640
H        7.85035746       0.53341961      -3.61798189
H        9.94711798       0.23157123      -2.32822114
H       10.11889090       1.97205063      -2.13199801
H       10.32478854       2.26987879      -4.59774571
H       10.10482961       0.52768905      -4.84091861
H       12.49114851       1.93608449      -4.03568699
H       14.21033711       1.59624886      -2.66922391
H       16.67571874       1.47561982      -2.64724709
H       17.84616284      -0.36785425      -3.81034469
H       14.05505919      -2.00026990      -5.05188271
C       -1.79217523      -1.79217523      -1.79217523
C       -1.46822547      -3.13789672      -1.96480608
C       -2.28209219      -3.95035130      -2.75461267
C       -3.41290103      -3.41264858      -3.37214620
C       -3.72526846      -2.05679425      -3.21104432
C       -2.91671227      -1.24367254      -2.40869443
C       -4.94388657      -1.52479223      -3.87620826
O       -5.91648451      -2.25073278      -4.04500243
N       -4.87904240      -0.21471668      -4.30354175
C       -5.98534068       0.41267584      -4.99855220
C       -6.09729809      -0.06100927      -6.44487069
C       -7.22406876       0.66029202      -7.18307690
C       -7.40929381       0.08797723      -8.58575214
N       -8.46068298       0.77051799      -9.31079646
C       -8.21105117       1.92515216     -10.02212281
O       -7.11675798       2.47593116     -10.06241671
C       -9.34818813       2.47216829     -10.80813773
C      -10.67700826       2.34572834     -10.37837926
C      -11.71472067       2.86444758     -11.15659186
C      -11.42956409       3.51332043     -12.35866404
C      -10.10578806       3.65240836     -12.77464655
Br      -9.72414583       4.53808260     -14.40070902
C       -9.06313771       3.14181583     -12.00452173
H       -0.59242032      -3.56418786      -1.48194705
H       -2.03999463      -5.00282181      -2.88505738
H       -4.05088927      -4.05096593      -3.98069294
H       -3.17434666      -0.20253060      -2.23715965
H       -3.99047343       0.26765984      -4.29897243
H       -5.81628078       1.49454727      -4.95773007
H       -6.90894212       0.18972546      -4.45197404
H       -6.27657427      -1.14227942      -6.46873216
H       -5.14642806       0.10920739      -6.96453830
H       -7.00085302       1.73301182      -7.23906914
H       -8.16323205       0.56374942      -6.62345691
H       -7.69216494      -0.96884680      -8.53140130
H       -6.47678536       0.16010237      -9.15675427
H       -9.34771536       0.29732938      -9.41253401
H      -10.91641120       1.87123686      -9.43063554
H      -12.74559176       2.77017511     -10.82316900
H      -12.24296034       3.91330233     -12.95899527
H       -8.03047960       3.25260501     -12.32879741
C       -1.79217523       1.79217523       1.79217523
C       -2.94458481       2.36850120       1.25784226
C       -3.76199751       3.15927740       2.06578125
C       -3.42092835       3.37434118       3.40242627
C       -2.25361818       2.80863684       3.93085200
C       -1.43949093       2.00476360       3.12482471
C       -1.93095227       3.05235269       5.36158210
O       -2.83359703       3.20201888       6.17660381
N       -0.59011302       3.13077858       5.67640923
C       -0.14228400       3.40082907       7.02810397
C       -0.32527730       4.86657158       7.41132917
C        0.21472581       5.14901583       8.81256362
C       -0.08920215       6.58414914       9.23371743
N        0.43098973       6.87946096      10.55249023
C        1.73033271       7.30375469      10.73459985
O        2.54136753       7.42150265       9.82310841
C        2.11273526       7.67426733      12.12262551
C        1.56294393       7.03149152      13.24111159
C        1.94271533       7.42210791      14.52747238
C        2.87305234       8.44776220      14.70019784
C        3.43069346       9.07323634      13.58548337
Br       4.69561155      10.45777621      13.82460760
C        3.06151376       8.68916178      12.29819560
H       -3.21896792       2.20014920       0.21943812
H       -4.66711573       3.60341635       1.65734175
H       -4.06519868       3.98460570       4.03274376
H       -0.55741955       1.52158813       3.53502923
H        0.09408031       3.18209365       4.93377267
H        0.91497335       3.11713857       7.07729835
H       -0.70226856       2.75482365       7.71409848
H       -1.38804523       5.13201470       7.36752593
H        0.18648295       5.50630920       6.68193272
H        1.29696176       4.97011792       8.83375419
H       -0.23252567       4.45488766       9.53552621
H       -1.17149848       6.74839282       9.27252174
H        0.33557573       7.29398492       8.51502807
H       -0.22442101       6.91786397      11.32063501
H        0.86071656       6.21030233      13.12622411
H        1.51979885       6.92244617      15.39593833
H        3.16252929       8.74652421      15.70465836
H        3.49863730       9.17628020      11.42902911
C        1.79217523      -1.79217523       1.79217523
C        3.16029100      -1.87690286       1.53373441
C        3.97143491      -2.66685089       2.34877035
C        3.41042239      -3.37227496       3.41499845
C        2.03343250      -3.29893562       3.66073891
C        1.22066288      -2.49680461       2.85161175
C        1.47615834      -4.05635761       4.81237112
O        2.15887809      -4.24021102       5.81313062
N        0.19651083      -4.54680043       4.65398957
C       -0.44843373      -5.33278838       5.68686239
C        0.09713595      -6.75658060       5.74946150
C       -0.64015105      -7.59162507       6.79537962
C       -0.00241186      -8.97079209       6.93868850
N       -0.69786257      -9.78658518       7.91223886
C       -1.79741966     -10.54206535       7.56337613
O       -2.28774605     -10.55098303       6.44000656
C       -2.35884089     -11.41632079       8.62667768
C       -2.32507905     -11.05384092       9.98089731
C       -2.85355959     -11.91341764      10.94700691
C       -3.42013569     -13.13010963      10.56493376
C       -3.46752366     -13.47978346       9.21576644
Br      -4.24206330     -15.12625705       8.70257851
C       -2.94644903     -12.62842274       8.24386990
H        3.60435710      -1.32547619       0.70872195
H        5.04058685      -2.72917587       2.15811110
H        4.04713009      -3.98088823       4.05452982
H        0.15975728      -2.39376832       3.06051132
H       -0.23871573      -4.51867985       3.74182189
H       -1.52070693      -5.33888840       5.46128210
H       -0.30382715      -4.82667919       6.64833865
H        1.16735359      -6.73415744       5.98607482
H        0.00505556      -7.23163388       4.76506954
H       -1.69520309      -7.69083142       6.51128202
H       -0.62311219      -7.07990967       7.76614206
H        1.03378891      -8.87730559       7.28131854
H        0.00517463      -9.49295606       5.97530658
H       -0.26640884      -9.91199015       8.81733867
H       -1.91612228     -10.09728884      10.29464332
H       -2.83117541     -11.63238592      11.99737514
H       -3.82831544     -13.79390203      11.32306668
H       -2.98571028     -12.90109121       7.19129107
C       -0.00445707       0.01189536      -1.78238275
H       -0.66409135       0.67374010      -2.43557963
H        0.65740317      -0.63156657      -2.45157240
C       -0.90989263      -0.90692880      -0.91072765
C        0.90977584       0.90977584      -0.90977584
C       -0.00465871       1.77757030       0.00794375
H       -0.66225468       2.44313916      -0.64384735
H        0.64322798       2.43503045       0.67728295
C       -1.78241447       0.00034974      -0.00472694
H       -2.45427497      -0.65498947       0.64260836
H       -2.43311707       0.67328779      -0.65473579
C       -0.91132561       0.90220522       0.91563759
C       -0.01476271      -0.02253852       1.78660255
H       -0.67934791      -0.69751639       2.42135241
H        0.63392994       0.61504881       2.47327442
C        0.01484550      -1.77751727      -0.01636693
H        0.67870853      -2.42144646      -0.68295456
H       -0.62264859      -2.45592969       0.64226336
C        1.78714474       0.01002794       0.00389507
H        2.44202412       0.67113390       0.66197326
H        2.45385902      -0.65136977      -0.64189061
C        0.91606151      -0.90478549       0.90901405
