66
Properties=species:S:1:pos:R:3 pbc="F F F"
C        1.78233912       1.78233912      -1.78233912
C        2.94552313       1.33971878      -2.38512281
C        3.49453093       2.40502587      -3.11430831
C        4.64946203       2.48805028      -3.89519281
Br       5.86020200       1.07880861      -4.19161274
C        4.77947403       3.76023995      -4.42381519
S        3.47150839       4.79818828      -3.93453217
C        2.79113883       3.54792421      -3.05524845
S        1.41244073       3.42612212      -2.11518875
H        3.34332281       0.33722618      -2.29424972
H        5.55832926       4.14769081      -5.06608951
C       -1.78233912      -1.78233912      -1.78233912
C       -2.84839348      -1.30160633      -2.52036491
C       -3.42863068      -2.37916713      -3.20606730
C       -4.51872319      -2.43675355      -4.07722838
Br      -5.57098839      -0.96532984      -4.59430511
C       -4.71782095      -3.73605262      -4.50965560
S       -3.55175201      -4.82967892      -3.82279791
C       -2.83691392      -3.56588621      -2.99151137
S       -1.53424105      -3.47391565      -1.94559490
H       -3.16149367      -0.26587957      -2.54742547
H       -5.47300040      -4.11421498      -5.18489421
C       -1.78233912       1.78233912       1.78233912
C       -1.38256981       3.00987352       2.27792139
C       -2.43409805       3.53818930       3.04157777
C       -2.54574315       4.73610075       3.75086122
Br      -1.20642229       6.05184242       3.87235864
C       -3.78745815       4.82034822       4.35572280
S       -4.76280332       3.41836998       4.02305555
C       -3.52773117       2.76081446       3.10576587
S       -3.37238952       1.33174924       2.24961284
H       -0.41744785       3.46379357       2.09355728
H       -4.18536051       5.61489873       4.97185034
C        1.78233912      -1.78233912       1.78233912
C        1.35332647      -2.96902141       2.34801684
C        2.41425717      -3.51047189       3.08913605
C        2.50638022      -4.68111486       3.84521005
Br       1.11934623      -5.93020389       4.08107324
C        3.76889503      -4.79441995       4.40021420
S        4.78696190      -3.45212226       3.96514468
C        3.54151283      -2.78006741       3.07273124
S        3.40906048      -1.38297803       2.16171309
H        0.36270342      -3.38731788       2.22477741
H        4.15966889      -5.57901347       5.03342721
C       -0.00445707       0.01189536      -1.78238275
H       -0.66409135       0.67374010      -2.43557963
H        0.65740317      -0.63156657      -2.45157240
C       -0.90989263      -0.90692880      -0.91072765
C        0.90977584       0.90977584      -0.90977584
C       -0.00465871       1.77757030       0.00794375
H       -0.66225468       2.44313916      -0.64384735
H        0.64322798       2.43503045       0.67728295
C       -1.78241447       0.00034974      -0.00472694
H       -2.45427497      -0.65498947       0.64260836
H       -2.43311707       0.67328779      -0.65473579
C       -0.91132561       0.90220522       0.91563759
C       -0.01476271      -0.02253852       1.78660255
H       -0.67934791      -0.69751639       2.42135241
H        0.63392994       0.61504881       2.47327442
C        0.01484550      -1.77751727      -0.01636693
H        0.67870853      -2.42144646      -0.68295456
H       -0.62264859      -2.45592969       0.64226336
C        1.78714474       0.01002794       0.00389507
H        2.44202412       0.67113390       0.66197326
H        2.45385902      -0.65136977      -0.64189061
C        0.91606151      -0.90478549       0.90901405
