45
Properties=species:S:1:pos:R:3 pbc="F F F"
C        0.00000000       0.00000000       0.00000000
C        0.87243509       0.87243509      -0.87243509
C        2.03561910       0.42981475      -1.47521879
C        2.58462691       1.49512185      -2.20440429
C        3.73955800       1.57814625      -2.98528879
Br       4.95029798       0.16890459      -3.28170871
C        3.86957001       2.85033593      -3.51391116
S        2.56160437       3.88828426      -3.02462815
C        1.88123480       2.63802019      -2.14534443
S        0.50253670       2.51621810      -1.20528473
H        2.43341879      -0.57267785      -1.38434569
H        4.64842524       3.23778678      -4.15618548
C       -0.87243509      -0.87243509      -0.87243509
C       -1.84887343      -0.37557131      -1.71620790
C       -2.45792419      -1.45831837      -2.36791049
C       -3.48819428      -1.50513947      -3.30965929
Br      -4.39424396      -0.00739786      -3.99926945
C       -3.75103369      -2.81591285      -3.66687056
S       -2.71588475      -3.93310453      -2.82552749
C       -1.96924403      -2.66358468      -2.03177070
S       -0.73671538      -2.58424031      -0.90308385
H       -2.08382629       0.67422144      -1.83548178
H       -4.48436903      -3.19014438      -4.36788410
C       -0.87243509       0.87243509       0.87243509
C       -0.43711291       2.04866489       1.45487485
C       -1.50007229       2.59347605       2.19060470
C       -1.58798322       3.75714201       2.95786781
Br      -0.19065464       4.98917716       3.22107947
C       -2.85498578       3.87788183       3.50094949
S       -3.88227028       2.55085412       3.04139237
C       -2.63458233       1.87508948       2.15492760
S       -2.50706856       0.48618150       1.23078947
H        0.55901226       2.45784663       1.34625226
H       -3.24422159       4.65992773       4.13824819
C        0.87243509      -0.87243509       0.87243509
C        0.41855781      -2.01302925       1.50906558
C        1.48748314      -2.56929794       2.22737196
C        1.56300694      -3.70917720       3.03080890
Br       0.13540397      -4.88307063       3.38243668
C        2.84320706      -3.85526417       3.53534587
S        3.89759880      -2.58029633       2.99662164
C        2.64332687      -1.89188397       2.12938858
S        2.53033649      -0.53086877       1.16283427
H       -0.59374803      -2.39113622       1.44769845
H        3.22791968      -4.62862444       4.18585338
