90
Properties=species:S:1:pos:R:3 pbc="F F F"
Cl       3.56102081       5.27513051      -2.55813847
C        2.91878188       3.68129884      -2.47369071
S        3.29193511       2.58229172      -3.71322722
C        2.36385053       1.34903638      -2.96313182
C        1.79236224       1.79236224      -1.79236224
C        2.11141747       3.14847518      -1.49662595
C        1.62942752       3.86552054      -0.31104856
C        2.31338920       3.89219470       0.93738822
C        1.65902304       4.63573578       1.89315122
S        0.20785880       5.30887156       1.27628793
C        0.47234939       4.60512916      -0.24431876
Cl      -0.68189260       4.87094348      -1.49442303
H        2.28797615       0.37201353      -3.41972193
H        1.95335600       4.82075356       2.91754275
C        3.55962670       3.21536715       1.18718121
C        4.60335062       2.64852408       1.39638284
Br       6.29096391       1.73198678       1.73464418
Cl      -5.37293775      -2.84462894      -3.17672310
C       -3.72466937      -2.60111326      -2.74798880
S       -2.54098450      -3.59449099      -3.45197856
C       -1.29039073      -2.79340219      -2.59222581
C       -1.79236224      -1.79236224      -1.79236224
C       -3.20872362      -1.67012604      -1.87766893
C       -3.99446163      -0.68499491      -1.12654008
C       -4.29327564       0.62433933      -1.59925936
C       -5.04755722       1.35737460      -0.71142497
S       -5.39942811       0.45542518       0.70356050
C       -4.54827464      -0.88878192       0.11525925
Cl      -4.46275882      -2.30786737       1.08715227
H       -0.26124996      -3.09926699      -2.71919465
H       -5.41112273       2.37081946      -0.81626354
C       -3.85701753       1.14015939      -2.87095450
C       -3.49165137       1.57215869      -3.93599918
Br      -2.90088518       2.27066502      -5.65808635
Cl      -3.88399739       2.38323843       5.12705397
C       -3.06320506       2.39548188       3.61508449
S       -3.16261506       3.78325732       2.64158167
C       -2.17662713       3.06451806       1.43487354
C       -1.79236224       1.79236224       1.79236224
C       -2.30103393       1.39394381       3.06154086
C       -2.04348352       0.08682670       3.67568640
C       -0.93451071      -0.19069043       4.52437540
C       -0.91560464      -1.49057124       4.97657419
S       -2.24980581      -2.38205420       4.37269082
C       -2.82865184      -1.03167898       3.52482445
Cl      -4.27253553      -1.18852589       2.59946427
H       -1.93472039       3.61101891       0.53397231
H       -0.19328689      -1.96442054       5.62770045
C        0.06983067       0.77826232       4.87938099
C        0.91096657       1.58976025       5.17669818
Br       2.27101218       2.90188376       5.65743492
Cl       3.31915664      -5.34738623       2.72774692
C        2.81128705      -3.71335230       2.54913208
S        3.39264137      -2.55185334       3.64295934
C        2.50756438      -1.30578202       2.86267233
C        1.79236224      -1.79236224       1.79236224
C        1.96432996      -3.19288185       1.59930679
C        1.31295963      -3.96064810       0.53238889
C        1.87147579      -4.15888542      -0.76216553
C        1.06849989      -4.91693304      -1.58382533
S       -0.37061689      -5.39486151      -0.78380219
C        0.09543600      -4.59099332       0.63536799
Cl      -0.95451867      -4.63842599       1.99956659
H        2.55933584      -0.29032322       3.23005255
H        1.24804917      -5.21626031      -2.60774267
C        3.14222404      -3.62642735      -1.18083875
C        4.20647571      -3.18049372      -1.53147757
Br       5.92728065      -2.45945675      -2.09843089
C       -0.00445707       0.01189536      -1.78238275
H       -0.66409135       0.67374010      -2.43557963
H        0.65740317      -0.63156657      -2.45157240
C       -0.90989263      -0.90692880      -0.91072765
C        0.90977584       0.90977584      -0.90977584
C       -0.00465871       1.77757030       0.00794375
H       -0.66225468       2.44313916      -0.64384735
H        0.64322798       2.43503045       0.67728295
C       -1.78241447       0.00034974      -0.00472694
H       -2.45427497      -0.65498947       0.64260836
H       -2.43311707       0.67328779      -0.65473579
C       -0.91132561       0.90220522       0.91563759
C       -0.01476271      -0.02253852       1.78660255
H       -0.67934791      -0.69751639       2.42135241
H        0.63392994       0.61504881       2.47327442
C        0.01484550      -1.77751727      -0.01636693
H        0.67870853      -2.42144646      -0.68295456
H       -0.62264859      -2.45592969       0.64226336
C        1.78714474       0.01002794       0.00389507
H        2.44202412       0.67113390       0.66197326
H        2.45385902      -0.65136977      -0.64189061
C        0.91606151      -0.90478549       0.90901405
