146
Properties=species:S:1:pos:R:3 pbc="F F F"
C        1.79112080       1.79112080      -1.79112080
C        3.16863888       1.81181027      -1.59446660
C        3.97096087       2.62590806      -2.40027337
C        3.40410570       3.43070070      -3.40557738
C        2.01843322       3.37460991      -3.60576156
C        1.21367755       2.56485589      -2.79444751
C        4.34164257       4.28151165      -4.20542837
O        5.49469956       3.87230188      -4.35007067
C        3.94633775       5.59473140      -4.72554123
N        2.66432370       5.92265671      -4.95786164
O        2.67225848       7.15774871      -5.56127573
C        3.94259227       7.59702922      -5.66088648
C        4.80224600       6.68199947      -5.09815791
C        6.23379914       6.89619214      -5.02353842
O        6.81175886       7.54781131      -5.89126870
C        7.03056049       6.43114205      -3.85336205
C        6.47896694       6.27909733      -2.57288827
C        7.28248822       5.85408088      -1.50907729
C        8.64059634       5.61334066      -1.71565694
Br       9.72236157       5.04417017      -0.27409539
C        9.20835429       5.79979070      -2.97355751
C        8.40438501       6.21021052      -4.03964606
H        3.62883311       1.20020932      -0.82233324
H        5.04816686       2.62833680      -2.23666497
H        1.52795746       3.93293247      -4.39767267
H        0.13892133       2.54378200      -2.96082279
H        4.07616121       8.56248693      -6.12874905
H        5.43249720       6.49313082      -2.37617048
H        6.84339229       5.72081147      -0.52333771
H       10.26968113       5.63089344      -3.13749498
H        8.85511585       6.35815710      -5.02002439
C       -1.79112080      -1.79112080      -1.79112080
C       -1.22433755      -2.83638934      -2.51418886
C       -2.03508319      -3.63681550      -3.32524361
C       -3.41781705      -3.39681925      -3.42574748
C       -3.97335257      -2.35705656      -2.66839555
C       -3.16080385      -1.55072033      -1.86145677
C       -4.20029853      -4.29571189      -4.33257216
O       -3.78235628      -5.44383017      -4.49088566
C       -5.36745707      -3.81780108      -5.08135223
N       -6.09892173      -2.76401169      -4.68190863
O       -7.17760225      -2.68348680      -5.53019387
C       -7.08555033      -3.65332159      -6.46163604
C       -5.93071224      -4.37734994      -6.27434119
C       -5.53992368      -5.46675147      -7.14685456
O       -6.39308653      -6.15869571      -7.69905664
C       -4.11087107      -5.71831405      -7.48587947
C       -3.14168283      -4.70457894      -7.48469077
C       -1.81772355      -4.99969645      -7.82822639
C       -1.46881837      -6.29663107      -8.20414450
Br       0.31996698      -6.68863409      -8.67196003
C       -2.43057129      -7.30286731      -8.24826391
C       -3.74970138      -7.01282585      -7.89171436
H       -0.15793726      -3.03936843      -2.45406998
H       -1.57724721      -4.45371536      -3.88220606
H       -5.04023859      -2.15420264      -2.66412138
H       -3.61144649      -0.74274689      -1.28933275
H       -7.88736593      -3.69434152      -7.18568973
H       -3.39275449      -3.67905641      -7.22998761
H       -1.06834044      -4.21215285      -7.80704818
H       -2.16902032      -8.31179315      -8.55725608
H       -4.49803528      -7.80311018      -7.93215188
C       -1.79112080       1.79112080       1.79112080
C       -2.98682037       2.29750693       1.29058845
C       -3.78746395       3.10980364       2.09987471
C       -3.39826779       3.42815089       3.41396510
C       -2.20461587       2.88584635       3.90834246
C       -1.39894744       2.07806169       3.09597181
C       -4.31232275       4.31879976       4.19746008
O       -5.51331787       4.27807899       3.92567525
C       -3.80462905       5.27348835       5.18849298
N       -2.62524523       5.10896694       5.81062988
O       -2.53261034       6.10125523       6.75741735
C       -3.62549270       6.88702003       6.68799523
C       -4.45101790       6.45625674       5.67512873
C       -5.68942586       7.12847456       5.33562927
O       -6.34262902       7.70525995       6.20294990
C       -6.15615741       7.23442930       3.92447788
C       -5.27656712       7.22222531       2.83216010
C       -5.77403586       7.34183220       1.52977833
C       -7.14296835       7.50655711       1.32006848
Br      -7.80898517       7.67257605      -0.44093409
C       -8.02200126       7.56084622       2.39885503
C       -7.52831291       7.42716693       3.69876174
H       -3.30695992       2.06692503       0.27749072
H       -4.72260717       3.49551141       1.69505005
H       -1.87566731       3.05317790       4.92971740
H       -0.47135953       1.67537913       3.49678746
H       -3.66868591       7.70433975       7.39437152
H       -4.20297607       7.13037791       2.96844452
H       -5.08748525       7.31292928       0.68712694
H       -9.08802433       7.70662471       2.24342052
H       -8.22033856       7.47452706       4.53843172
C        1.79112080      -1.79112080       1.79112080
C        1.20692993      -2.70563548       2.66235035
C        2.01863606      -3.50612679       3.47237944
C        3.42049517      -3.39629391       3.42359470
C        3.98964535      -2.48920981       2.51994953
C        3.17709289      -1.68231208       1.71357597
C        4.20481205      -4.28293315       4.34083739
O        3.70287478      -5.36501222       4.64918511
C        5.47873366      -3.85754772       4.93032900
N        6.25896716      -2.92175128       4.36412361
O        7.41926376      -2.87243420       5.09958497
C        7.33297678      -3.74047431       6.12705688
C        6.10474197      -4.36038639       6.11727501
C        5.70579591      -5.32261477       7.12511902
O        6.54365452      -6.04313078       7.66405357
C        4.30055936      -5.39971390       7.61479132
C        3.43133317      -4.29915647       7.60046289
C        2.12676528      -4.42942837       8.08945274
C        1.70140238      -5.64621775       8.62197380
Br      -0.06021374      -5.81522991       9.28561096
C        2.56819126      -6.73473854       8.67877271
C        3.86622617      -6.61019091       8.17782451
H        0.12589186      -2.80650081       2.71898299
H        1.54652386      -4.22009718       4.14654760
H        5.06477085      -2.39431894       2.39947281
H        3.63976944      -0.97784084       1.02591584
H        8.19563785      -3.79535794       6.77640140
H        3.74730289      -3.33071343       7.22378217
H        1.45300032      -3.57661214       8.05792901
H        2.24871328      -7.68080392       9.10855235
H        4.54061339      -7.46388378       8.22880017
C       -0.00445707       0.01189536      -1.78238275
H       -0.66409135       0.67374010      -2.43557963
H        0.65740317      -0.63156657      -2.45157240
C       -0.90989263      -0.90692880      -0.91072765
C        0.90977584       0.90977584      -0.90977584
C       -0.00465871       1.77757030       0.00794375
H       -0.66225468       2.44313916      -0.64384735
H        0.64322798       2.43503045       0.67728295
C       -1.78241447       0.00034974      -0.00472694
H       -2.45427497      -0.65498947       0.64260836
H       -2.43311707       0.67328779      -0.65473579
C       -0.91132561       0.90220522       0.91563759
C       -0.01476271      -0.02253852       1.78660255
H       -0.67934791      -0.69751639       2.42135241
H        0.63392994       0.61504881       2.47327442
C        0.01484550      -1.77751727      -0.01636693
H        0.67870853      -2.42144646      -0.68295456
H       -0.62264859      -2.45592969       0.64226336
C        1.78714474       0.01002794       0.00389507
H        2.44202412       0.67113390       0.66197326
H        2.45385902      -0.65136977      -0.64189061
C        0.91606151      -0.90478549       0.90901405
