125
Properties=species:S:1:pos:R:3 pbc="F F F"
C        0.00000000       0.00000000       0.00000000
C        0.88121678       0.88121678      -0.88121678
C        2.25873486       0.90190624      -0.68456258
C        3.06105685       1.71600403      -1.49036934
C        2.49420167       2.52079668      -2.49567336
C        1.10852919       2.46470588      -2.69585754
C        0.30377352       1.65495186      -1.88454349
C        3.43173855       3.37160762      -3.29552434
O        4.58479554       2.96239786      -3.44016664
C        3.03643373       4.68482737      -3.81563721
N        1.75441968       5.01275269      -4.04795762
O        1.76235446       6.24784469      -4.65137171
C        3.03268824       6.68712520      -4.75098245
C        3.89234197       5.77209545      -4.18825388
C        5.32389511       5.98628812      -4.11363440
O        5.90185483       6.63790729      -4.98136467
C        6.12065647       5.52123803      -2.94345802
C        5.56906292       5.36919330      -1.66298425
C        6.37258420       4.94417686      -0.59917327
C        7.73069232       4.70343664      -0.80575291
Br       8.81245755       4.13426615       0.63580863
C        8.29845027       4.88988668      -2.06365349
C        7.49448098       5.30030649      -3.12974203
H        2.71892908       0.29030529       0.08757078
H        4.13826284       1.71843278      -1.32676095
H        0.61805344       3.02302845      -3.48776865
H       -0.77098269       1.63387797      -2.05091877
H        3.16625718       7.65258291      -5.21884502
H        4.52259318       5.58322680      -1.46626645
H        5.93348827       4.81090744       0.38656631
H        9.35977710       4.72098941      -2.22759096
H        7.94521182       5.44825308      -4.11012036
C       -0.88121678      -0.88121678      -0.88121678
C       -0.82286990      -0.75632308      -2.26601070
C       -1.63711965      -1.56153373      -3.06877684
C       -2.52080416      -2.49434384      -2.49552371
C       -2.54443421      -2.62409503      -1.10056337
C       -1.73434919      -1.81304732      -0.29587236
C       -3.36461836      -3.29887882      -3.43537333
O       -2.90659533      -3.52403839      -4.55672632
C       -4.72138845      -3.73142789      -3.08408196
N       -5.12454680      -3.87952811      -1.81105507
O       -6.38766476      -4.42021166      -1.85369443
C       -6.76769855      -4.56431711      -3.13878024
C       -5.78269233      -4.09377947      -3.97621950
C       -5.92105077      -4.08379023      -5.41897662
O       -6.58768058      -4.94708903      -5.98635719
C       -5.35610742      -2.98166804      -6.24757706
C       -5.16477183      -1.68318958      -5.75327905
C       -4.64500101      -0.68551303      -6.58542028
C       -4.34803451      -0.97480867      -7.91703869
Br      -3.65079830       0.37784337      -9.03796013
C       -4.57169508      -2.24990627      -8.43038909
C       -5.07704938      -3.25055849      -7.59692164
H       -0.14942122      -0.04084602      -2.73139636
H       -1.57726319      -1.45475253      -4.15144084
H       -3.16729134      -3.36036488      -0.60119431
H       -1.77563246      -1.92364608       0.78546449
H       -7.74851470      -4.98983664      -3.29933378
H       -5.42008511      -1.42141232      -4.73058900
H       -4.48224815       0.31403740      -6.18961865
H       -4.35893918      -2.47751882      -9.47189947
H       -5.25357967      -4.24464059      -8.00536500
C       -0.88121678       0.88121678       0.88121678
C       -1.48412634       0.34568243       2.01539490
C       -2.29590453       1.15562615       2.81589954
C       -2.51727649       2.50576826       2.48762695
C       -1.87902892       3.03294014       1.35712355
C       -1.07162366       2.22046693       0.55117828
C       -3.41525754       3.28831414       3.39529884
O       -3.46045529       2.94828387       4.57862087
C       -4.28186165       4.36049410       2.89454256
N       -4.01389757       5.03644687       1.76478554
O       -4.94486401       6.04367410       1.67303274
C       -5.79622718       5.95999119       2.71457752
C       -5.47174771       4.87922129       3.50172230
C       -6.23350953       4.51157769       4.67873040
O       -6.79864690       5.37369837       5.34878152
C       -6.44500425       3.08535554       5.05499273
C       -6.44177565       2.04478358       4.11468123
C       -6.66264223       0.72606950       4.52722259
C       -6.91904549       0.45066904       5.87016734
Br      -7.22157740      -1.33179593       6.42113360
C       -6.96494026       1.48026194       6.80678824
C       -6.73040748       2.79547081       6.39865121
H       -1.32944108      -0.69545190       2.28767441
H       -2.75787875       0.72286266       3.70271516
H       -1.96969297       4.07909160       1.08006596
H       -0.59339779       2.64781571      -0.32739944
H       -6.57415291       6.70975064       2.75378156
H       -6.27947268       2.23487610       3.05773766
H       -6.64025610      -0.07736550       3.79493880
H       -7.18161615       1.27467671       7.85206461
H       -6.77167816       3.59671618       7.13519093
C        0.88121678      -0.88121678       0.88121678
C        1.18501170      -2.17903078       0.48116120
C        1.98748633      -2.98462509       1.29531880
C        2.48878365      -2.50321446       2.51867359
C        2.19426653      -1.18466732       2.89015875
C        1.38487151      -0.37981058       2.07858678
C        3.32430545      -3.44505576       3.32950930
O        3.96527460      -4.30245068       2.71963476
C        3.32024623      -3.42061102       4.79604105
N        2.99388380      -2.32280184       5.49844434
O        3.22697113      -2.61283596       6.82176376
C        3.65362789      -3.88672378       6.93044423
C        3.68221863      -4.48071535       5.68975732
C        4.06592806      -5.86454360       5.49334597
O        4.88618960      -6.39502460       6.23991260
C        3.41113315      -6.71472475       4.45949461
C        2.10177043      -6.48895667       4.01051337
C        1.53500720      -7.33238463       3.04854249
C        2.26140914      -8.41820842       2.56026431
Br       1.48917875      -9.55714211       1.26459420
C        3.54742243      -8.67640088       3.02816713
C        4.11977995      -7.82684047       3.97790909
H        0.80708830      -2.57343660      -0.45886131
H        2.21968727      -3.99714218       0.96662711
H        2.59282494      -0.73917077       3.79685483
H        1.16075481       0.63778198       2.39084122
H        3.87733999      -4.22912003       7.93122509
H        1.50100614      -5.67188099       4.39919929
H        0.52603609      -7.13982934       2.69196397
H        4.11246199      -9.53109884       2.66479664
H        5.12430715      -8.03641393       4.34286419
