133
Properties=species:S:1:pos:R:3 pbc="F F F"
C        0.00000000       0.00000000       0.00000000
C        0.88121678       0.88121678      -0.88121678
C        2.25873486       0.90190624      -0.68456258
C        3.06105685       1.71600403      -1.49036934
C        2.49420167       2.52079668      -2.49567336
C        1.10852919       2.46470588      -2.69585754
C        0.30377352       1.65495186      -1.88454349
C        3.43173855       3.37160762      -3.29552434
O        4.58479554       2.96239786      -3.44016664
C        3.03643373       4.68482737      -3.81563721
N        1.75441968       5.01275269      -4.04795762
O        1.76235446       6.24784469      -4.65137171
C        3.03268824       6.68712520      -4.75098245
C        3.89234197       5.77209545      -4.18825388
C        5.32389511       5.98628812      -4.11363440
O        5.90185483       6.63790729      -4.98136467
C        6.12065647       5.52123803      -2.94345802
C        5.56906292       5.36919330      -1.66298425
C        6.37258420       4.94417686      -0.59917327
C        7.73069232       4.70343664      -0.80575291
C        8.29845027       4.88988668      -2.06365349
C        7.49448098       5.30030649      -3.12974203
H        2.71892908       0.29030529       0.08757078
H        4.13826284       1.71843278      -1.32676095
H        0.61805344       3.02302845      -3.48776865
H       -0.77098269       1.63387797      -2.05091877
H        3.16625718       7.65258291      -5.21884502
H        4.52259318       5.58322680      -1.46626645
H        5.93348827       4.81090744       0.38656631
H        9.35977710       4.72098941      -2.22759096
H        7.94521182       5.44825308      -4.11012036
C        8.55487470       4.26979330       0.29255344
C        9.24512744       3.90661700       1.21238502
Br      10.36120775       3.31939164       2.69967488
C       -0.88121678      -0.88121678      -0.88121678
C       -0.29920860      -1.71226198      -1.83373310
C       -1.11142597      -2.51287898      -2.64312527
C       -2.51207907      -2.48629732      -2.51229532
C       -3.07683492      -1.66355362      -1.52870407
C       -2.26433006      -0.85630374      -0.72263507
C       -3.29846648      -3.36542064      -3.43498339
O       -2.75715315      -4.39869781      -3.83150907
C       -4.62521318      -2.98238086      -3.92930427
N       -5.42127179      -2.12482864      -3.26902955
O       -6.62274142      -2.10227763      -3.93655181
C       -6.54855129      -2.90704168      -5.01520292
C       -5.29000922      -3.45522885      -5.10745323
C       -4.89790842      -4.33704874      -6.18886047
O       -5.72500504      -5.07411588      -6.72200587
C       -3.52090532      -4.30693182      -6.75751538
C       -2.71315525      -3.16080270      -6.72728251
C       -1.43358943      -3.18949425      -7.29285065
C       -0.97415378      -4.34930871      -7.91641938
C       -1.78255766      -5.48099935      -7.98843343
C       -3.05461614      -5.45828774      -7.41162563
H        0.78068631      -1.74784869      -1.95450121
H       -0.64072360      -3.16109155      -3.38164141
H       -4.14685655      -1.63704129      -1.34495269
H       -2.72433923      -0.21775106       0.02827625
H       -7.44273788      -2.97598829      -5.61895894
H       -3.05901360      -2.23386007      -6.27921275
H       -0.80629339      -2.30245870      -7.24907731
H       -1.43745402      -6.38255784      -8.48834561
H       -3.68359882      -6.34517954      -7.47480690
C        0.34184548      -4.37344885      -8.50051118
C        1.44399485      -4.39366622      -8.98968805
Br       3.22607717      -4.42635600      -9.78064569
C       -0.88121678       0.88121678       0.88121678
C       -1.80940893       1.73822825       0.29756649
C       -2.60988533       2.54836292       1.10918198
C       -2.48642146       2.51391790       2.51033235
C       -1.56549299       1.62428111       3.07931851
C       -0.75865340       0.81785384       2.26676163
C       -3.37431296       3.43018687       3.29437068
O       -4.46393991       3.72357213       2.79984800
C       -2.94258425       4.03571348       4.55860058
N       -1.99416390       3.48575935       5.33520673
O       -1.94092326       4.23262930       6.48801829
C       -2.81944723       5.25103092       6.40031775
C       -3.45075692       5.22376728       5.17816711
C       -4.42621357       6.21869038       4.77891368
O       -5.14390341       6.75875465       5.61846873
C       -4.52116215       6.69425929       3.36993108
C       -3.42873789       6.68202917       2.49047341
C       -3.57590172       7.15737113       1.18266147
C       -4.80163441       7.67437007       0.76387738
C       -5.88244904       7.72915690       1.64038450
C       -5.74095691       7.24174184       2.94183076
H       -1.92096473       1.78364920      -0.78295033
H       -3.33462751       3.21127932       0.63754974
H       -1.45936086       1.51490953       4.15458015
H       -0.04337018       0.14126784       2.72917602
H       -2.87237866       5.90798779       7.25731866
H       -2.45383655       6.31748406       2.80076582
H       -2.72919599       7.12747323       0.50116017
H       -6.83551158       8.14697325       1.32587265
H       -6.58871793       7.29108760       3.62377973
C       -4.94780564       8.16599442      -0.58168550
C       -5.07022403       8.57772981      -1.70859442
Br      -5.26816423       9.24347111      -3.53071082
C        0.88121678      -0.88121678       0.88121678
C        0.59905553      -2.23802835       1.00811979
C        1.40564875      -3.03983724       1.82194423
C        2.49747738      -2.49260729       2.52058705
C        2.78126288      -1.13017283       2.35765690
C        1.96963715      -0.32528918       1.54834254
C        3.29202440      -3.42629728       3.38054883
O        3.33470991      -4.61025126       3.04239887
C        3.92445556      -2.98444560       4.62799715
N        4.25977399      -1.70293703       4.85241896
O        4.94413154      -1.67321699       6.04422232
C        4.99226931      -2.91680757       6.56171901
C        4.31492732      -3.79271249       5.74505150
C        4.16399873      -5.19930156       6.06051734
O        5.03548092      -5.79229375       6.69335212
C        2.91649460      -5.94256497       5.72629294
C        1.66639513      -5.31589523       5.61895010
C        0.52708755      -6.07057901       5.31826776
C        0.62984363      -7.45217266       5.15786558
C        1.85878040      -8.09120750       5.30200254
C        2.99939051      -7.33716278       5.58797622
H       -0.24067071      -2.68262520       0.47970910
H        1.17428144      -4.10105813       1.90811700
H        3.63898331      -0.66016750       2.82969973
H        2.20233394       0.73211623       1.44359633
H        5.51530563      -3.02012728       7.50225220
H        1.55178305      -4.24695534       5.77334803
H       -0.43545170      -5.57478425       5.21849684
H        1.94288091      -9.16983230       5.19564427
H        3.95684966      -7.84324160       5.70349400
C       -0.54571279      -8.22562896       4.85219838
C       -1.53024130      -8.87339862       4.59620210
Br      -3.12214062      -9.92078737       4.18227776
