154
Properties=species:S:1:pos:R:3 pbc="F F F"
C        1.79112080       1.79112080      -1.79112080
C        3.16863888       1.81181027      -1.59446660
C        3.97096087       2.62590806      -2.40027337
C        3.40410570       3.43070070      -3.40557738
C        2.01843322       3.37460991      -3.60576156
C        1.21367755       2.56485589      -2.79444751
C        4.34164257       4.28151165      -4.20542837
O        5.49469956       3.87230188      -4.35007067
C        3.94633775       5.59473140      -4.72554123
N        2.66432370       5.92265671      -4.95786164
O        2.67225848       7.15774871      -5.56127573
C        3.94259227       7.59702922      -5.66088648
C        4.80224600       6.68199947      -5.09815791
C        6.23379914       6.89619214      -5.02353842
O        6.81175886       7.54781131      -5.89126870
C        7.03056049       6.43114205      -3.85336205
C        6.47896694       6.27909733      -2.57288827
C        7.28248822       5.85408088      -1.50907729
C        8.64059634       5.61334066      -1.71565694
C        9.20835429       5.79979070      -2.97355751
C        8.40438501       6.21021052      -4.03964606
H        3.62883311       1.20020932      -0.82233324
H        5.04816686       2.62833680      -2.23666497
H        1.52795746       3.93293247      -4.39767267
H        0.13892133       2.54378200      -2.96082279
H        4.07616121       8.56248693      -6.12874905
H        5.43249720       6.49313082      -2.37617048
H        6.84339229       5.72081147      -0.52333771
H       10.26968113       5.63089344      -3.13749498
H        8.85511585       6.35815710      -5.02002439
C        9.46477872       5.17969732      -0.61735058
C       10.15503147       4.81652102       0.30248099
Br      11.27111178       4.22929566       1.78977085
C       -1.79112080      -1.79112080      -1.79112080
C       -1.30441285      -3.00583158      -2.26467132
C       -2.11347288      -3.80653712      -3.07713229
C       -3.41338738      -3.39855042      -3.42844598
C       -3.89466995      -2.18530355      -2.91883119
C       -3.08234229      -1.37972208      -2.11091657
C       -4.19737903      -4.31464716      -4.31655640
O       -3.94990607      -5.51960022      -4.24756582
C       -5.15986765      -3.80680414      -5.29993859
N       -5.76191104      -2.61274565      -5.17018536
O       -6.68754892      -2.52138668      -6.18234732
C       -6.62443799      -3.63051942      -6.94555056
C       -5.63629877      -4.46671470      -6.47938991
C       -5.30822340      -5.72427168      -7.12103462
O       -6.17692641      -6.37188654      -7.70202592
C       -3.90467728      -6.21990023      -7.19048708
C       -2.79584042      -5.36130324      -7.17380888
C       -1.50136173      -5.88584240      -7.25844226
C       -1.31528551      -7.26149042      -7.39281801
C       -2.40977996      -8.12061025      -7.45131230
C       -3.70212757      -7.59962287      -7.35249114
H       -0.30235181      -3.34073987      -2.00828398
H       -1.71966282      -4.75660298      -3.43690284
H       -4.90604361      -1.84019714      -3.11232186
H       -3.47261708      -0.43695426      -1.73395478
H       -7.31575270      -3.67612480      -7.77551968
H       -2.91288606      -4.28371326      -7.10519918
H       -0.64618372      -5.21510952      -7.22624824
H       -2.27241169      -9.19205371      -7.57360415
H       -4.55407889      -8.27624591      -7.40297254
C        0.01841826      -7.79687273      -7.48337216
C        1.13539516      -8.24525541      -7.55921125
Br       2.94145234      -8.97025228      -7.68183665
C       -1.79112080       1.79112080       1.79112080
C       -2.80493781       2.55252533       1.21745260
C       -3.60536258       3.36332975       2.02844996
C       -3.39664362       3.42523393       3.41850623
C       -2.38886802       2.62996487       3.97997179
C       -1.58239545       1.82317347       3.16741203
C       -4.29252668       4.33480910       4.20124681
O       -5.42610809       4.53075383       3.76021019
C       -3.82546168       5.04395210       5.39719660
N       -2.79946163       4.60188229       6.14349813
O       -2.72505477       5.42220013       7.24402803
C       -3.67005757       6.37879541       7.15165499
C       -4.37010912       6.23648974       5.97580451
C       -5.42876314       7.14415843       5.58060813
O       -6.12792259       7.69262525       6.43029102
C       -5.63751694       7.52290731       4.15464034
C       -4.60089830       7.52008312       3.20997111
C       -4.85562278       7.90190873       1.88811489
C       -6.13445868       8.31730668       1.51782859
C       -7.16238650       8.36303112       2.45628490
C       -6.91292608       7.96843639       3.77287911
H       -2.98337317       2.52259915       0.14540334
H       -4.39751407       3.95060987       1.56504470
H       -2.21209349       2.59552650       5.05094262
H       -0.79934972       1.22112711       3.62304930
H       -3.71335456       7.08445171       7.96959092
H       -3.58807844       7.23472507       3.47899500
H       -4.05086707       7.87938749       1.15728691
H       -8.15708034       8.70249271       2.17849649
H       -7.71993972       8.01029715       4.50306047
C       -6.39147769       8.71301798       0.15733096
C       -6.60673111       9.04442619      -0.98208581
Br      -6.95477769       9.58028524      -2.82442634
C        1.79112080      -1.79112080       1.79112080
C        1.20774245      -2.72442853       2.64274476
C        2.01932349      -3.52489980       3.45291901
C        3.42013842      -3.39633856       3.42390680
C        3.98899459      -2.47023023       2.53957987
C        3.17643631      -1.66341241       1.73313222
C        4.20407728      -4.28470004       4.33980526
O        3.71240249      -5.37711514       4.62755448
C        5.46460192      -3.85064509       4.95136337
N        6.23977109      -2.89751853       4.40755243
O        7.38972581      -2.84284633       5.15871078
C        7.30154073      -3.72530036       6.17366687
C        6.08175246      -4.36084533       6.13980559
C        5.68244730      -5.34125362       7.12982879
O        6.52263164      -6.05787757       7.67032965
C        4.27213197      -5.44289997       7.60003266
C        3.38883531      -4.35356932       7.58854791
C        2.07987628      -4.50707013       8.05869998
C        1.66363006      -5.73611727       8.56984661
C        2.54378368      -6.81400058       8.62391825
C        3.84644021      -6.66615098       8.14165039
H        0.12747559      -2.83998224       2.68391784
H        1.54792597      -4.25367052       4.11157215
H        5.06425277      -2.35989086       2.43441898
H        3.63869837      -0.94408455       1.06074321
H        8.15638628      -3.77752899       6.83348191
H        3.69694379      -3.37627903       7.22857568
H        1.39547201      -3.66268890       8.02938056
H        2.23118879      -7.76965720       9.03722356
H        4.53122684      -7.51165521       8.19041529
C        0.31685919      -5.88881760       9.05614984
C       -0.81106142      -6.01670412       9.46342879
Br      -2.63481364      -6.22348581      10.12196442
C       -0.00445707       0.01189536      -1.78238275
H       -0.66409135       0.67374010      -2.43557963
H        0.65740317      -0.63156657      -2.45157240
C       -0.90989263      -0.90692880      -0.91072765
C        0.90977584       0.90977584      -0.90977584
C       -0.00465871       1.77757030       0.00794375
H       -0.66225468       2.44313916      -0.64384735
H        0.64322798       2.43503045       0.67728295
C       -1.78241447       0.00034974      -0.00472694
H       -2.45427497      -0.65498947       0.64260836
H       -2.43311707       0.67328779      -0.65473579
C       -0.91132561       0.90220522       0.91563759
C       -0.01476271      -0.02253852       1.78660255
H       -0.67934791      -0.69751639       2.42135241
H        0.63392994       0.61504881       2.47327442
C        0.01484550      -1.77751727      -0.01636693
H        0.67870853      -2.42144646      -0.68295456
H       -0.62264859      -2.45592969       0.64226336
C        1.78714474       0.01002794       0.00389507
H        2.44202412       0.67113390       0.66197326
H        2.45385902      -0.65136977      -0.64189061
C        0.91606151      -0.90478549       0.90901405
