146
Properties=species:S:1:pos:R:3 pbc="F F F"
C        1.79121971       1.79121971      -1.79121971
C        2.52647412       1.22412589      -2.82440420
C        3.33300218       2.03753064      -3.62965917
C        3.41656952       3.43003115      -3.42632739
C        2.66539057       3.96789877      -2.36508861
C        1.85800682       3.15994928      -1.55458360
C        4.27119503       4.25049255      -4.28533261
N        5.35700055       3.68692554      -4.90629029
N        6.28624465       4.41319204      -5.77388730
C        6.16592640       5.73943788      -6.07788590
C        7.15742142       6.37888654      -6.93550125
C        8.51908612       6.04348213      -6.80848600
C        9.49740531       6.64265212      -7.60966983
C        9.12534695       7.58684148      -8.56001851
Br      10.44122160       8.40535895      -9.64009237
C        7.78571894       7.92527999      -8.72437316
C        6.81057351       7.31810232      -7.92348148
C        5.05779858       6.31398627      -5.44583340
C        4.66038697       7.61902994      -5.46931749
O        3.53790098       7.74515767      -4.72150224
N        3.19159796       6.52695983      -4.17466894
C        4.11813176       5.62985900      -4.57401081
H        2.48485580       0.15521503      -3.01612461
H        3.90093050       1.56805283      -4.43299921
H        2.70215132       5.03183502      -2.13709291
H        1.29206795       3.61262184      -0.74447354
H        8.83111458       5.30293907      -6.07206666
H       10.53973363       6.36106499      -7.48231413
H        7.48658558       8.65039825      -9.47648020
H        5.76905345       7.57746832      -8.10373234
H        5.01605834       8.53173106      -5.92393890
C       -1.79121971      -1.79121971      -1.79121971
C       -2.70725937      -1.20936004      -2.65838480
C       -3.51287014      -2.02280964      -3.46451221
C       -3.41629646      -3.42876678      -3.42786483
C       -2.48429285      -3.98292421      -2.53116089
C       -1.67658359      -3.17532711      -1.72062899
C       -4.27523741      -4.24922007      -4.28256271
N       -5.48532421      -3.75991152      -4.70498065
N       -6.42931077      -4.49580676      -5.54820646
C       -6.20205965      -5.75508971      -6.02610082
C       -7.21577339      -6.41421424      -6.84182158
C       -8.57972786      -6.26674336      -6.52458304
C       -9.57788097      -6.89074090      -7.28110539
C       -9.22490148      -7.67064854      -8.37665691
Br     -10.56636619      -8.52211377      -9.39819295
C       -7.88698327      -7.81972880      -8.72866003
C       -6.89287996      -7.18819722      -7.97108014
C       -4.96736997      -6.25367699      -5.59657130
C       -4.43435476      -7.48857511      -5.82580452
O       -3.22061510      -7.55597407      -5.22797170
N       -2.94562783      -6.37204184      -4.57555705
C       -4.00792911      -5.55850562      -4.75556684
H       -2.80803709      -0.12898605      -2.71917230
H       -4.22456851      -1.54178059      -4.13563344
H       -2.37476544      -5.06179313      -2.43452068
H       -0.96786049      -3.64077929      -1.04052355
H       -8.87762416      -5.65657355      -5.67192259
H      -10.62095936      -6.75668446      -7.00546892
H       -7.60545513      -8.41455957      -9.59344932
H       -5.85962593      -7.29460353      -8.29602464
H       -4.74083963      -8.38260394      -6.34828473
C       -1.79121971       1.79121971       1.79121971
C       -1.87037411       3.15659835       1.54803175
C       -2.68056907       3.95999671       2.35962622
C       -3.43201717       3.41850599       3.42240490
C       -3.31999473       2.03365183       3.64473138
C       -2.51013159       1.22440218       2.83800593
C       -4.26711206       4.28739989       4.25250825
N       -3.95348758       5.61691183       4.37981697
N       -4.70751480       6.57322401       5.19258518
C       -5.82577548       6.25010987       5.90736483
C       -6.49517430       7.27080779       6.70582713
C       -5.73487418       8.21817798       7.41800209
C       -6.34405795       9.20626110       8.19940821
C       -7.73106106       9.26596823       8.27517764
Br      -8.56039238      10.59238692       9.33389362
C       -8.51122032       8.35703997       7.56711181
C       -7.89590534       7.37396025       6.78229173
C       -6.14657761       4.89456679       5.77647385
C       -7.15386559       4.20682854       6.38804027
O       -7.10615191       2.91483851       5.98357046
N       -6.05059064       2.72711425       5.11552184
C       -5.42090787       3.91439399       4.98669972
H       -1.31009760       3.61092387       0.73517397
H       -2.72458171       5.02860382       2.14879701
H       -3.85412802       1.55382829       4.46312293
H       -2.44982445       0.15828252       3.04105637
H       -4.64633232       8.19089027       7.36889772
H       -5.72537388       9.91990311       8.73783577
H       -9.59590198       8.40849885       7.60906320
H       -8.53540088       6.70308545       6.21176778
H       -7.94297592       4.44199272       7.08675966
C        1.79121971      -1.79121971       1.79121971
C        1.85436726      -3.15967140       1.56096554
C        2.66464376      -3.96305654       2.37249169
C        3.43205493      -3.41860280       3.42227033
C        3.33602677      -2.03055501       3.63179617
C        2.52618901      -1.22127414       2.82507655
C        4.26676410      -4.28754289       4.25271320
N        3.94124442      -5.61251222       4.39645974
N        4.69385195      -6.56822089       5.21125115
C        5.82237980      -6.24925733       5.91161305
C        6.48958444      -7.26863851       6.71358626
C        5.72709529      -8.20121538       7.44274359
C        6.33424370      -9.18755041       8.22793316
C        7.72127569      -9.26041167       8.29051957
Br       8.54797130     -10.58450282       9.35419881
C        8.50328146      -8.36643130       7.56565934
C        7.88991851      -7.38507159       6.77716722
C        6.15529899      -4.89836704       5.76395223
C        7.17545098      -4.21472757       6.35855584
O        7.13651576      -2.92640446       5.94164066
N        6.07421685      -2.73673155       5.08227833
C        5.43151372      -3.91885621       4.97163165
H        1.28148115      -3.61640424       0.75831005
H        2.69592489      -5.03409242       2.17196524
H        3.88308100      -1.54800951       4.43998874
H        2.47851227      -0.15263927       3.01801179
H        4.63844032      -8.16349925       7.40418074
H        5.71393484      -9.88956837       8.77960954
H        9.58776482      -8.42834851       7.59735070
H        8.53029009      -6.72634408       6.19361994
H        7.96915589      -4.45084462       7.05172779
C       -0.00445707       0.01189536      -1.78238275
H       -0.66409135       0.67374010      -2.43557963
H        0.65740317      -0.63156657      -2.45157240
C       -0.90989263      -0.90692880      -0.91072765
C        0.90977584       0.90977584      -0.90977584
C       -0.00465871       1.77757030       0.00794375
H       -0.66225468       2.44313916      -0.64384735
H        0.64322798       2.43503045       0.67728295
C       -1.78241447       0.00034974      -0.00472694
H       -2.45427497      -0.65498947       0.64260836
H       -2.43311707       0.67328779      -0.65473579
C       -0.91132561       0.90220522       0.91563759
C       -0.01476271      -0.02253852       1.78660255
H       -0.67934791      -0.69751639       2.42135241
H        0.63392994       0.61504881       2.47327442
C        0.01484550      -1.77751727      -0.01636693
H        0.67870853      -2.42144646      -0.68295456
H       -0.62264859      -2.45592969       0.64226336
C        1.78714474       0.01002794       0.00389507
H        2.44202412       0.67113390       0.66197326
H        2.45385902      -0.65136977      -0.64189061
C        0.91606151      -0.90478549       0.90901405
