125
Properties=species:S:1:pos:R:3 pbc="F F F"
C        0.00000000       0.00000000       0.00000000
C        0.88131569       0.88131569      -0.88131569
C        1.61657010       0.31422186      -1.91450017
C        2.42309816       1.12762662      -2.71975514
C        2.50666550       2.52012713      -2.51642336
C        1.75548654       3.05799475      -1.45518458
C        0.94810279       2.25004525      -0.64467958
C        3.36129101       3.34058852      -3.37542859
N        4.44709653       2.77702152      -3.99638626
N        5.37634062       3.50328802      -4.86398328
C        5.25602237       4.82953385      -5.16798188
C        6.24751740       5.46898252      -6.02559723
C        7.60918210       5.13357811      -5.89858198
C        8.58750128       5.73274810      -6.69976580
C        8.21544292       6.67693745      -7.65011449
Br       9.53131758       7.49545493      -8.73018834
C        6.87581492       7.01537597      -7.81446914
C        5.90066949       6.40819830      -7.01357746
C        4.14789456       5.40408225      -4.53592937
C        3.75048294       6.70912591      -4.55941346
O        2.62799695       6.83525364      -3.81159821
N        2.28169393       5.61705581      -3.26476492
C        3.20822774       4.71995498      -3.66410679
H        1.57495177      -0.75468899      -2.10622059
H        2.99102647       0.65814881      -3.52309519
H        1.79224730       4.12193099      -1.22718889
H        0.38216392       2.70271782       0.16543048
H        7.92121056       4.39303504      -5.16216263
H        9.62982961       5.45116096      -6.57241011
H        6.57668155       7.74049423      -8.56657617
H        4.85914943       6.66756429      -7.19382831
H        4.10615431       7.62182704      -5.01403488
C       -0.88131569      -0.88131569      -0.88131569
C       -1.75682060      -1.78924243      -0.29922910
C       -2.56290436      -2.59489421      -1.11268135
C       -2.51789102      -2.50639785      -2.51892712
C       -1.61291303      -1.58251700      -3.07323584
C       -0.80238059      -0.77482409      -2.26562294
C       -3.37280329      -3.36514697      -3.33935786
N       -3.80470574      -4.57010554      -2.84569304
N       -4.64909306      -5.51348814      -3.58103072
C       -5.11869041      -5.29063307      -4.84421463
C       -5.93639122      -6.30346404      -5.50224188
C       -5.62761867      -7.66831645      -5.34540707
C       -6.38623134      -8.66572018      -5.96806367
C       -7.47543132      -8.31101891      -6.75604463
Br      -8.49970500      -9.65152163      -7.60573422
C       -7.81910416      -6.97201743      -6.91453843
C       -7.05949858      -5.97862709      -6.28431957
C       -4.67948723      -4.06116391      -5.34725504
C       -4.89885532      -3.53380200      -6.58636501
O       -4.29387164      -2.32380538      -6.65717178
N       -3.64652854      -2.04583101      -5.47115511
C       -3.83700798      -3.10254310      -4.65273843
H       -1.82418442      -1.88363089       0.78133194
H       -3.24066637      -3.30014178      -0.63146232
H       -1.50965702      -1.47957029      -4.15213987
H       -0.11573802      -0.07251451      -2.73119872
H       -4.78004897      -7.96753432      -4.72882494
H       -6.11718869      -9.70955002      -5.82666197
H       -8.67897934      -6.68901384      -7.51575878
H       -7.37805666      -4.94419205      -6.39829333
H       -5.41805814      -3.84237346      -7.48158463
C       -0.88131569       0.88131569       0.88131569
C       -2.13859847       1.27008423       0.43660943
C       -2.94265736       2.07838727       1.24943530
C       -2.51355975       2.50791278       2.52174346
C       -1.23115831       2.10243958       2.93506799
C       -0.42088922       1.29549637       2.12644204
C       -3.37859014       3.35407374       3.34464424
N       -4.31925924       4.15419453       2.74705055
N       -5.22639039       5.04908878       3.46813276
C       -5.24928081       5.17630397       4.82795332
C       -6.17661374       6.11312398       5.45235942
C       -6.42162621       7.36455582       4.85516015
C       -7.29929948       8.28998163       5.43073409
C       -7.95395087       7.97291235       6.61563164
Br      -9.13450803       9.22002838       7.40242444
C       -7.74908061       6.73646963       7.22010979
C       -6.87385539       5.81223183       6.63635803
C       -4.29098287       4.35929455       5.43762876
C       -3.98697741       4.26747377       6.76457114
O       -2.99616247       3.35711769       6.92156865
N       -2.61640898       2.85157720       5.69552848
C       -3.36980494       3.46464842       4.75783614
H       -2.50715879       0.95546118      -0.53613660
H       -3.92458784       2.37066391       0.87701872
H       -0.82768326       2.41789129       3.89579262
H        0.56402054       1.00258333       2.48088847
H       -5.92128310       7.63096547       3.92415966
H       -7.46252497       9.24783107       4.94304464
H       -8.27014161       6.47609085       8.13751950
H       -6.76549199       4.84055098       7.11449905
H       -4.33609928       4.73018019       7.67573676
C        0.88131569      -0.88131569       0.88131569
C        0.65532754      -0.93925601       2.25070859
C        1.46683118      -1.74955902       3.05408973
C        2.51232248      -2.52216275       2.50873077
C        2.71762554      -2.43133826       1.11970207
C        1.91090771      -1.62150887       0.31041105
C        3.34287719      -3.35674654       3.37768439
N        3.49200897      -3.02738674       4.70110861
N        4.30746301      -3.77953622       5.65661270
C        5.00310219      -4.91137762       5.33905829
C        5.80622412      -5.57787599       6.35799704
C        6.54090139      -4.81474052       7.28570027
C        7.32732743      -5.42123605       8.27145170
C        7.38563606      -6.80822052       8.34863828
Br       8.45093719      -7.63407095       9.67195271
C        6.65531835      -7.59076079       7.45958088
C        5.86562628      -6.97802380       6.47879516
C        4.84994743      -5.24820846       3.98975029
C        5.43899127      -6.27251687       3.30751418
O        5.01799981      -6.23641424       2.02043476
N        4.16148518      -5.17193751       1.83009197
C        4.05679242      -4.52503180       3.01046528
H       -0.14396294      -0.36226789       2.70817842
H        1.26970285      -1.77669849       4.12586913
H        3.52245283      -2.98259688       0.63631746
H        2.10050611      -1.57794136      -0.75899621
H        6.50575957      -3.72609396       7.24455470
H        7.88330986      -4.80045027       8.96964055
H        6.68368137      -8.67513457       7.52493601
H        5.27784936      -7.61862710       5.82406557
H        6.13034329      -7.06770852       3.54396442
