170
Properties=species:S:1:pos:R:3 pbc="F F F"
C        1.79170097       1.79170097      -1.79170097
C        2.40338310       2.92086157      -1.24942073
C        3.22631717       3.71505338      -2.05209725
C        3.44558824       3.37342283      -3.39350930
C        2.78990384       2.26030975      -3.94147358
C        1.97417760       1.46181962      -3.13440695
C        4.34685240       4.23312247      -4.20511211
O        4.36134987       5.44310383      -3.98581604
C        5.12841454       3.65759977      -5.29070248
C        5.38953617       4.30797236      -6.48268844
N        6.11192275       3.45389662      -7.27568525
N        6.34371098       2.27827757      -6.64199234
C        5.80790829       2.41392881      -5.41779764
C        5.98506904       1.35821542      -4.40964756
O        5.82720552       1.57785750      -3.20898086
C        6.34414934      -0.02571835      -4.89438736
C        6.57780877       3.66550978      -8.60374213
C        7.34107337       2.66745116      -9.23322051
C        7.79746453       2.84496335     -10.54120878
C        7.49375522       4.01593319     -11.23226886
C        6.73892952       5.00797496     -10.60884174
C        6.28088651       4.84574448      -9.29880608
H        2.25414010       3.18751046      -0.20625890
H        3.70832645       4.59239543      -1.62453290
H        2.90076386       1.99932107      -4.99035400
H        1.48776034       0.58728050      -3.55928722
H        5.10146841       5.29878956      -6.80207073
H        5.53624253      -0.41473248      -5.52061578
H        6.46954362      -0.69235522      -4.03605892
H        7.28112128      -0.00494047      -5.45563766
H        7.59256327       1.74268155      -8.71604265
H        8.38838700       2.06745040     -11.01959804
H        7.84799487       4.14461434     -12.25174698
H        5.69420619       5.64230889      -8.85255818
C        6.42178849       6.21420334     -11.32858799
C        6.15618287       7.22441960     -11.93137549
Br       5.72672105       8.85785385     -12.90603188
C       -1.79170097      -1.79170097      -1.79170097
C       -1.87001615      -1.54262246      -3.16102678
C       -2.66095161      -2.36288922      -3.96962697
C       -3.36435796      -3.43816309      -3.40999931
C       -3.31427283      -3.65321819      -2.02419615
C       -2.51518701      -2.83700401      -1.21821315
C       -4.17524767      -4.29944643      -4.31039289
O       -4.73432822      -3.78078290      -5.27515861
C       -4.36683422      -5.70935736      -4.00052522
C       -5.54092798      -6.39946555      -4.23980345
N       -5.37153925      -7.68268783      -3.78727754
N       -4.12885337      -7.85954078      -3.27558674
C       -3.49194566      -6.69092539      -3.45676369
C       -2.06542176      -6.56435060      -3.12315966
O       -1.37163850      -5.65828896      -3.58411642
C       -1.47327797      -7.57199598      -2.16754439
C       -6.31512684      -8.74814327      -3.78379057
C       -5.92667295     -10.01074274      -3.30432934
C       -6.83831666     -11.06847021      -3.27684979
C       -8.14378872     -10.87493335      -3.72323520
C       -8.53028685      -9.62409928      -4.20136009
C       -7.62683543      -8.55891292      -4.23968873
H       -1.31659138      -0.72164687      -3.60967120
H       -2.71503988      -2.17056101      -5.03965389
H       -3.88788860      -4.44771317      -1.55483716
H       -2.46226520      -3.02358377      -0.14847910
H       -6.46192151      -6.05420435      -4.68620285
H       -1.96374569      -7.48448377      -1.19389637
H       -0.40605958      -7.36926893      -2.03791882
H       -1.58751317      -8.58551999      -2.55878532
H       -4.91273529     -10.18919396      -2.94935822
H       -6.52815224     -12.04220371      -2.90507950
H       -8.84904368     -11.70145183      -3.69386069
H       -7.97048571      -7.60124497      -4.61734257
C       -9.88223282      -9.42631735      -4.65602964
C      -11.01448757      -9.26067499      -5.03681539
Br     -12.84524774      -8.99284530      -5.65251374
C       -1.79170097       1.79170097       1.79170097
C       -2.61664064       2.75081546       1.20620930
C       -3.43803881       3.54267878       2.01275021
C       -3.44188064       3.36740671       3.40323302
C       -2.57524768       2.43023223       3.98620725
C       -1.76086883       1.63265156       3.17688379
C       -4.34830140       4.21531350       4.22147209
O       -4.55823022       5.37191059       3.86012893
C       -4.90329321       3.70578327       5.46764031
C       -5.10497891       4.47932311       6.59589495
N       -5.59870287       3.66246903       7.58033272
N       -5.73982819       2.39048301       7.13366969
C       -5.38187451       2.41839670       5.83936353
C       -5.53182047       1.21864670       5.00246486
O       -5.55409266       1.28618741       3.77376381
C       -5.63226405      -0.11749076       5.69804506
C       -5.92372917       3.99883275       8.92449876
C       -6.45750962       3.01267642       9.77155899
C       -6.77089895       3.31389050      11.09884720
C       -6.55144104       4.59810478      11.59241144
C       -6.02437365       5.57816195      10.75321062
C       -5.71174429       5.29188041       9.42181237
H       -2.63469523       2.88547699       0.12773723
H       -4.08638941       4.28620538       1.55266000
H       -2.51956754       2.30662177       5.06424962
H       -1.10890602       0.89204333       3.63337872
H       -4.92117087       5.53272392       6.74843392
H       -4.70755147      -0.31360871       6.24818307
H       -5.76733672      -0.90768054       4.95359114
H       -6.48727787      -0.13324932       6.37778992
H       -6.63876679       2.00103991       9.41148077
H       -7.18457673       2.54442596      11.74643275
H       -6.79289676       4.82355141      12.62790802
H       -5.30096596       6.08403334       8.80407396
C       -5.79313248       6.90266809      11.26877925
C       -5.59946801       8.01194198      11.70056797
Br      -5.28632892       9.80554404      12.39873382
C        1.79170097      -1.79170097       1.79170097
C        1.94052851      -1.48888940       3.14424748
C        2.73100565      -2.30835828       3.95410387
C        3.36325710      -3.43610524       3.41315802
C        3.24331529      -3.70689053       2.04148134
C        2.44464733      -2.89099841       1.23475844
C        4.17595885      -4.29352790       4.31560024
O        4.79822997      -3.75978587       5.23225389
C        4.29422921      -5.72228782       4.06019976
C        5.44761488      -6.45264006       4.27994204
N        5.20464235      -7.74508804       3.89177423
N        3.93432965      -7.88854228       3.44110896
C        3.35575183      -6.68647829       3.59740461
C        1.92253915      -6.51149267       3.31890020
O        1.28843468      -5.55722040       3.76838880
C        1.24708650      -7.53147236       2.43425949
C        6.10148224      -8.85018083       3.89539761
C        5.63953488     -10.11355135       3.48865880
C        6.50376103     -11.21053663       3.46933900
C        7.83457602     -11.05593722       3.85144402
C        8.29401731      -9.80428060       4.25744832
C        7.43875896      -8.69975362       4.28692450
H        1.44240004      -0.62623165       3.57927776
H        2.84011013      -2.07372498       5.01141968
H        3.76180166      -4.54487590       1.58376137
H        2.33696197      -3.11993285       0.17743325
H        6.40105062      -6.12970140       4.67157669
H        1.69754290      -7.50665707       1.43792587
H        0.18468244      -7.28767925       2.34088563
H        1.33564258      -8.53167050       2.86450539
H        4.60436612     -10.26205653       3.18486482
H        6.13684904     -12.18448401       3.15410239
H        8.50244439     -11.91315218       3.82875963
H        7.83867709      -7.74306587       4.60733030
C        9.67176280      -9.64713756       4.64567945
C       10.82562465      -9.51553027       4.97082303
Br      12.69132168      -9.30273241       5.49655270
C       -0.00445707       0.01189536      -1.78238275
H       -0.66409135       0.67374010      -2.43557963
H        0.65740317      -0.63156657      -2.45157240
C       -0.90989263      -0.90692880      -0.91072765
C        0.90977584       0.90977584      -0.90977584
C       -0.00465871       1.77757030       0.00794375
H       -0.66225468       2.44313916      -0.64384735
H        0.64322798       2.43503045       0.67728295
C       -1.78241447       0.00034974      -0.00472694
H       -2.45427497      -0.65498947       0.64260836
H       -2.43311707       0.67328779      -0.65473579
C       -0.91132561       0.90220522       0.91563759
C       -0.01476271      -0.02253852       1.78660255
H       -0.67934791      -0.69751639       2.42135241
H        0.63392994       0.61504881       2.47327442
C        0.01484550      -1.77751727      -0.01636693
H        0.67870853      -2.42144646      -0.68295456
H       -0.62264859      -2.45592969       0.64226336
C        1.78714474       0.01002794       0.00389507
H        2.44202412       0.67113390       0.66197326
H        2.45385902      -0.65136977      -0.64189061
C        0.91606151      -0.90478549       0.90901405
