162
Properties=species:S:1:pos:R:3 pbc="F F F"
C        1.79168976       1.79168976      -1.79168976
C        2.86239526       1.23093343      -2.48347229
C        3.66567085       2.03760411      -3.29442991
C        3.39623789       3.40998356      -3.41875668
C        2.31833578       3.96481008      -2.71100327
C        1.51845156       3.15321800      -1.89937481
N        4.22139869       4.21498832      -4.25849510
N        5.28155346       3.67356423      -4.91373928
C        5.85385393       4.68290840      -5.59632833
C        6.97241296       4.66834115      -6.46201336
C        7.79383561       3.48215627      -6.82324901
N        7.26277429       5.89226870      -6.99985076
N        6.51005656       7.11058821      -6.71450999
C        5.43266856       7.16708910      -5.87346136
C        4.74003211       8.43661947      -5.66828308
C        4.63547685       9.36390334      -6.72326713
C        3.96274963      10.58027637      -6.56715634
C        3.37528167      10.89940579      -5.34675647
C        3.48684336      10.00930129      -4.28514915
Br       2.69586758      10.43181268      -2.61865898
C        4.17404615       8.80173153      -4.43444757
C        5.13016092       5.90479815      -5.33513172
C        4.08305229       5.55895767      -4.52468352
H        3.08056110       0.16855033      -2.40128628
H        4.49679153       1.57762503      -3.82679164
H        2.06979118       5.02031624      -2.76068351
H        0.68516601       3.59393575      -1.35678651
H        8.58837699       3.75637425      -7.52336134
H        7.16734545       2.71941558      -7.29620798
H        8.25495604       3.05586581      -5.92771146
H        5.08372369       9.13773872      -7.69190554
H        3.89862239      11.27521434      -7.40194213
H        2.84661845      11.84170991      -5.23300478
H        4.27965221       8.15170774      -3.56873478
H        3.26358339       6.13359498      -4.12744155
C       -1.79168976      -1.79168976      -1.79168976
C       -3.04112513      -1.33356011      -2.20211575
C       -3.84526213      -2.13897557      -3.01346717
C       -3.39818979      -3.40619857      -3.42058977
C       -2.13979654      -3.85968903      -2.99466355
C       -1.33958023      -3.05019717      -2.18126698
N       -4.22900446      -4.20956106      -4.25631658
N       -5.45872398      -3.77385955      -4.63627344
C       -5.98471650      -4.75438474      -5.39398942
C       -7.22925559      -4.80953925      -6.06397262
C       -8.27170691      -3.74872072      -6.07881327
N       -7.42282598      -5.97011021      -6.76195756
N       -6.45589201      -7.06299390      -6.81626886
C       -5.24945040      -7.05225032      -6.17151829
C       -4.34753093      -8.19355713      -6.30384660
C       -4.29451732      -8.91693255      -7.51119745
C       -3.42876481     -10.00270790      -7.67870964
C       -2.59106239     -10.39226639      -6.63811515
C       -2.64408454      -9.70729079      -5.42991846
Br      -1.51309939     -10.22835292      -4.00488692
C       -3.52136100      -8.63369322      -5.25517102
C       -5.04978038      -5.85228401      -5.46802640
C       -3.93904756      -5.45118117      -4.77646476
H       -3.39905307      -0.35217262      -1.89917202
H       -4.81802422      -1.76004481      -3.32313918
H       -1.74755798      -4.83386744      -3.26936551
H       -0.36579430      -3.41156021      -1.85853376
H       -9.12797789      -4.05167709      -6.68845760
H       -7.86251367      -2.82363467      -6.49682066
H       -8.62419400      -3.55210832      -5.06223099
H       -4.93777850      -8.63088771      -8.34470175
H       -3.41076712     -10.54070533      -8.62430641
H       -1.91436004     -11.23096885      -6.77600424
H       -3.56736387      -8.15145545      -4.28127541
H       -2.98446261      -5.92324883      -4.61690849
C       -1.79168976       1.79168976       1.79168976
C       -1.21248758       2.77724369       2.58706972
C       -2.02063447       3.58733396       3.38973643
C       -3.41417001       3.41556381       3.39524431
C       -3.98556521       2.41414767       2.59443625
C       -3.17195835       1.60496258       1.79412345
N       -4.22296391       4.25821641       4.21370178
N       -3.65656370       5.20307397       5.00921930
C       -4.67268074       5.80664004       5.65376987
C       -4.64745153       6.87598026       6.57933567
C       -3.43984019       7.59849199       7.06090872
N       -5.88832644       7.24457565       7.02199166
N       -7.13093024       6.60396142       6.60026310
C       -7.19461600       5.55974091       5.71886210
C       -8.49294860       5.00006415       5.35192191
C       -9.62376721       5.83508589       5.26379422
C      -10.87773783       5.33592030       4.89652421
C      -11.03118174       3.98359868       4.60666351
C       -9.93357906       3.13728699       4.71042775
Br     -10.12841005       1.29527073       4.32265845
C       -8.68418216       3.63140325       5.09463983
C       -5.91878214       5.19471516       5.25659349
C       -5.59626022       4.25525195       4.31518132
H       -0.13501464       2.92575037       2.58963271
H       -1.54628965       4.35213806       4.00278051
H       -5.05484475       2.22918505       2.56676112
H       -3.62599528       0.83316234       1.17673066
H       -3.71368611       8.39131583       7.76311064
H       -2.91148138       8.05397835       6.21750928
H       -2.76353641       6.90547650       7.56952040
H       -9.53119163       6.90001947       5.48215685
H      -11.73197974       6.00718750       4.83661162
H      -12.00539863       3.60225432       4.31368019
H       -7.85962453       2.93130912       5.20916108
H       -6.20719061       3.60332275       3.71410656
C        1.79168976      -1.79168976       1.79168976
C        2.07139282      -3.10008794       1.40532023
C        2.88280340      -3.90470403       2.21019744
C        3.42109433      -3.39938016       3.40450363
C        3.12627260      -2.08118665       3.78668988
C        2.31221662      -1.28060560       2.97822215
N        4.25461136      -4.23260459       4.20766615
N        4.50725658      -5.51733232       3.84426807
C        5.29972007      -6.02829617       4.80507443
C        5.87859185      -7.31468735       4.90948827
C        5.73238205      -8.43022827       3.93663058
N        6.65043354      -7.47719302       6.02726720
N        6.86238070      -6.43986030       7.03291376
C        6.30931875      -5.19008012       6.97382014
C        6.59788840      -4.22001543       8.02703084
C        7.85950901      -4.21001488       8.65312343
C        8.17598346      -3.28278482       9.65141406
C        7.23407991      -2.33868059      10.04868343
C        5.97466843      -2.34579754       9.46082782
Br       4.68261033      -1.06991956       9.99380934
C        5.65112096      -3.28301315       8.47609114
C        5.52932148      -5.02397131       5.81679800
C        4.89167125      -3.89433515       5.38068708
H        1.66593403      -3.50404038       0.48042330
H        3.08899008      -4.92422492       1.88799321
H        3.50560698      -1.64141201       4.70377194
H        2.09172519      -0.26032164       3.28384145
H        6.29951888      -9.30761085       4.26098285
H        6.10454202      -8.12470253       2.95372445
H        4.68022579      -8.71434584       3.84396168
H        8.61806737      -4.93675398       8.35854660
H        9.16008575      -3.30043695      10.11525617
H        7.48756956      -1.61521182      10.81855175
H        4.64125575      -3.28685145       8.07198752
H        4.84077974      -2.89795869       5.78588149
C       -0.00445707       0.01189536      -1.78238275
H       -0.66409135       0.67374010      -2.43557963
H        0.65740317      -0.63156657      -2.45157240
C       -0.90989263      -0.90692880      -0.91072765
C        0.90977584       0.90977584      -0.90977584
C       -0.00465871       1.77757030       0.00794375
H       -0.66225468       2.44313916      -0.64384735
H        0.64322798       2.43503045       0.67728295
C       -1.78241447       0.00034974      -0.00472694
H       -2.45427497      -0.65498947       0.64260836
H       -2.43311707       0.67328779      -0.65473579
C       -0.91132561       0.90220522       0.91563759
C       -0.01476271      -0.02253852       1.78660255
H       -0.67934791      -0.69751639       2.42135241
H        0.63392994       0.61504881       2.47327442
C        0.01484550      -1.77751727      -0.01636693
H        0.67870853      -2.42144646      -0.68295456
H       -0.62264859      -2.45592969       0.64226336
C        1.78714474       0.01002794       0.00389507
H        2.44202412       0.67113390       0.66197326
H        2.45385902      -0.65136977      -0.64189061
C        0.91606151      -0.90478549       0.90901405
