186
Properties=species:S:1:pos:R:3 pbc="F F F"
C        1.79123170       1.79123170      -1.79123170
C        1.61330959       3.17140147      -1.78392303
C        2.42674561       3.97597490      -2.58411684
C        3.41749765       3.40450072      -3.39413027
Cl       4.39830537       4.49873345      -4.30281947
C        3.59186720       2.01281835      -3.40793112
C        2.77276459       1.21064031      -2.59212103
C        4.64081124       1.30043627      -4.19033298
O        5.17476558       0.33083409      -3.66062938
N        4.87094045       1.76388226      -5.47074367
C        5.85743305       1.31858714      -6.37586897
C        6.82708289       0.36703734      -6.06598344
C        7.79551110       0.00358454      -7.01130419
C        7.80643892       0.57566734      -8.28726602
C        6.83216149       1.52149347      -8.60052052
C        5.87047876       1.89421155      -7.65042448
N        8.82185504       0.15707087      -9.17123027
C        8.99060087       0.51336752     -10.49426537
O        8.27565677       1.27705914     -11.13260979
C       10.19693681      -0.04678581     -11.17880211
C       10.81900656       0.80991073     -12.10761860
C       11.95817294       0.40941753     -12.80828421
C       12.49226790      -0.85584874     -12.59337258
C       11.88111854      -1.72283105     -11.68710619
C       10.73236112      -1.32893947     -10.98339630
H        0.85533161       3.63093226      -1.15370489
H        2.29135235       5.05570418      -2.55930484
H        2.91372690       0.13035818      -2.58284355
H        4.29469966       2.53058212      -5.79617216
H        6.87289277      -0.10520774      -5.08972437
H        8.53732176      -0.73805353      -6.72529425
H        6.79512363       2.00013699      -9.57403420
H        5.13370867       2.64165777      -7.93293202
H        9.48130860      -0.51088004      -8.79133613
H       10.41119138       1.80389975     -12.28944194
H       12.42192063       1.08585557     -13.52268515
H       13.37744560      -1.17356215     -13.13975559
H       12.30452274      -2.71546668     -11.54624394
C       10.15119486      -2.32638969     -10.12261827
C        9.66446811      -3.16175426      -9.40171667
Br       8.87747213      -4.51246811      -8.23607975
C       -1.79123170      -1.79123170      -1.79123170
C       -1.29351941      -2.99555635      -2.27955834
C       -2.10475456      -3.80408889      -3.07799390
C       -3.41297692      -3.41125860      -3.39189313
Cl      -4.34281229      -4.51307377      -4.34397224
C       -3.91234630      -2.19368763      -2.90658274
C       -3.09024147      -1.38925247      -2.09603200
C       -5.29865971      -1.69785147      -3.13506931
O       -5.84671933      -1.11470525      -2.20480447
N       -5.81657487      -1.88788772      -4.40110379
C       -7.12163838      -1.58599935      -4.84425143
C       -8.13537800      -1.10906477      -4.01566089
C       -9.41737243      -0.86633381      -4.52669359
C       -9.70738646      -1.08488311      -5.87710271
C       -8.69190298      -1.55426069      -6.70801182
C       -7.41227259      -1.80881690      -6.19402530
N      -11.02550368      -0.82196183      -6.30269067
C      -11.52714024      -0.88372778      -7.58736575
O      -10.89897426      -1.19328393      -8.59306752
C      -12.98847561      -0.60211287      -7.73836463
C      -13.65445489      -1.36456327      -8.71751772
C      -15.02121499      -1.20291307      -8.95174662
C      -15.74380869      -0.27381018      -8.21217286
C      -15.09767247       0.49989667      -7.24761787
C      -13.72274507       0.34668505      -7.01075794
H       -0.28383309      -3.31902038      -2.03711528
H       -1.71260111      -4.75209973      -3.44166053
H       -3.47644905      -0.45078030      -1.69969928
H       -5.21189277      -2.32107575      -5.08848542
H       -7.97129799      -0.92804456      -2.95806684
H      -10.18017937      -0.50077236      -3.84361076
H       -8.86155453      -1.74466157      -7.76307872
H       -6.65152272      -2.18217997      -6.87459577
H      -11.66455307      -0.51937578      -5.57783583
H      -13.10179326      -2.09518639      -9.30755343
H      -15.51578678      -1.80052648      -9.71414810
H      -16.80804126      -0.14178325      -8.39381453
H      -15.67766669       1.23405318      -6.69168649
C      -13.15035806       1.24072626      -6.03779163
C      -12.67098395       1.98948578      -5.22293235
Br     -11.89587654       3.20016658      -3.90537382
C       -1.79123170       1.79123170       1.79123170
C       -3.05357017       1.34473145       2.17033247
C       -3.85406523       2.14887146       2.98390066
C       -3.39699222       3.40038318       3.41875325
Cl      -4.44993450       4.28707574       4.46284806
C       -2.12796726       3.85433126       3.03031815
C       -1.32506622       3.03358069       2.21687903
C       -1.52027756       5.14190531       3.46939762
O       -0.31650412       5.14210264       3.70762230
N       -2.36260382       6.23563326       3.50732929
C       -2.05477061       7.53544894       3.96166961
C       -0.83479566       7.89326535       4.53204266
C       -0.61955994       9.19953136       4.99130853
C       -1.61493837      10.17529583       4.87913808
C       -2.83241329       9.82019962       4.30156257
C       -3.05215896       8.50984002       3.85311581
N       -1.31468590      11.46045872       5.37501157
C       -2.09550936      12.59684748       5.30587692
O       -3.20838667      12.67781793       4.79912111
C       -1.54188482      13.81806477       5.96900353
C       -2.48959299      14.64758141       6.59936149
C       -2.10109594      15.81409114       7.26068761
C       -0.75831835      16.17151109       7.29996230
C        0.19267315      15.36887582       6.66919102
C       -0.19140284      14.19774529       5.99766983
H       -3.41887522       0.37198053       1.84911300
H       -4.83320302       1.78419551       3.28896285
H       -0.33075191       3.37049329       1.92568343
H       -3.31974498       6.09347384       3.20823512
H       -0.02818566       7.17694232       4.65228142
H        0.34475464       9.43378550       5.43553163
H       -3.64124510      10.53577467       4.19227505
H       -4.01888537       8.27288509       3.41652800
H       -0.40118518      11.56021963       5.80035987
H       -3.54633588      14.38280392       6.57539328
H       -2.84942844      16.44171108       7.73932184
H       -0.45144496      17.08139693       7.81079714
H        1.23656505      15.67544933       6.69641572
C        0.86512394      13.48192320       5.33062417
C        1.74996512      12.88242220       4.77197344
Br       3.18067846      11.91307979       3.86868244
C        1.79123170      -1.79123170       1.79123170
C        3.16394352      -1.83732483       1.56736574
C        3.96896745      -2.63722894       2.38064095
C        3.40529267      -3.39370995       3.41712603
Cl       4.50179373      -4.30638348       4.39168109
C        2.02074333      -3.35382367       3.63804967
C        1.21843642      -2.53859200       2.81849751
C        1.31924197      -4.07594248       4.73639604
O        0.38673261      -3.49573579       5.28376066
N        1.74749467      -5.36317629       4.99489542
C        1.30654506      -6.21914234       6.02620176
C        0.39974516      -5.84463434       7.01572417
C        0.03858608      -6.74416585       8.02764790
C        0.56795877      -8.03798223       8.06343128
C        1.46877033      -8.41581235       7.06959281
C        1.83957491      -7.51160543       6.06393445
N        0.15537586      -8.87276807       9.12201225
C        0.47307297     -10.20093285       9.32422794
O        1.19006892     -10.88859142       8.60666537
C       -0.06770541     -10.82530126      10.57135726
C        0.77852186     -11.76183744      11.19617658
C        0.39437383     -12.41004210      12.37145875
C       -0.84392428     -12.13409157      12.93962444
C       -1.70079977     -11.21936270      12.32683075
C       -1.32347449     -10.56820910      11.14208334
H        3.61783145      -1.24884177       0.77329553
H        5.04362788      -2.65408960       2.20864389
H        0.14454896      -2.48747668       2.99490298
H        2.48267243      -5.73376832       4.40501320
H       -0.03791872      -4.85172506       7.04360305
H       -0.66717392      -6.40830347       8.78343295
H        1.91321837      -9.40590777       7.05016868
H        2.55142628      -7.84400159       5.31287058
H       -0.47649238      -8.44840249       9.78985456
H        1.75129765     -11.99120653      10.76202890
H        1.06223307     -13.13147238      12.83675591
H       -1.14899382     -12.63948402      13.85314883
H       -2.67304959     -11.03043595      12.77791364
C       -2.31114976      -9.69343143      10.56514177
C       -3.13832780      -8.96080513      10.08195319
Br      -4.47580473      -7.77621037       9.30067814
C       -0.00445707       0.01189536      -1.78238275
H       -0.66409135       0.67374010      -2.43557963
H        0.65740317      -0.63156657      -2.45157240
C       -0.90989263      -0.90692880      -0.91072765
C        0.90977584       0.90977584      -0.90977584
C       -0.00465871       1.77757030       0.00794375
H       -0.66225468       2.44313916      -0.64384735
H        0.64322798       2.43503045       0.67728295
C       -1.78241447       0.00034974      -0.00472694
H       -2.45427497      -0.65498947       0.64260836
H       -2.43311707       0.67328779      -0.65473579
C       -0.91132561       0.90220522       0.91563759
C       -0.01476271      -0.02253852       1.78660255
H       -0.67934791      -0.69751639       2.42135241
H        0.63392994       0.61504881       2.47327442
C        0.01484550      -1.77751727      -0.01636693
H        0.67870853      -2.42144646      -0.68295456
H       -0.62264859      -2.45592969       0.64226336
C        1.78714474       0.01002794       0.00389507
H        2.44202412       0.67113390       0.66197326
H        2.45385902      -0.65136977      -0.64189061
C        0.91606151      -0.90478549       0.90901405
