181
Properties=species:S:1:pos:R:3 pbc="F F F"
C        0.00000000       0.00000000       0.00000000
C        0.88297547       0.88297547      -0.88297547
C        2.08462907       0.37441660      -1.37254804
C        2.89138277       1.17597429      -2.17479942
C        2.49326687       2.47964575      -2.47779167
C        1.28477499       2.99575324      -1.98602511
C        0.47710674       2.18535838      -1.18722045
N        0.96806823       4.32081846      -2.35205091
C       -0.15195368       5.05120965      -2.00122249
O       -1.04991630       4.70056279      -1.24795277
C       -0.23139484       6.41642986      -2.60235095
C       -0.88936155       7.42576263      -1.89313283
C       -0.98140953       8.71549486      -2.42575394
C       -0.41854999       9.01716379      -3.67359148
C        0.23453091       8.00798816      -4.38773340
C        0.31447797       6.70667874      -3.85795888
S        1.05075983       8.31273032      -5.93997609
O        1.87732006       9.48620261      -5.76817298
O        1.65021538       7.06315197      -6.36478337
N       -0.23310961       8.65319224      -6.99332288
C        0.06112024       9.55185565      -8.13553963
C        0.60700004       8.77079150      -9.32352400
C       -0.35387595       7.65895851      -9.73315677
C       -0.67561154       6.75497700      -8.54725426
C       -1.16666841       7.55466302      -7.34281171
H        2.39772821      -0.63882969      -1.13556791
H        3.82921964       0.78863112      -2.56487077
H        3.14132965       3.08351846      -3.10875559
H       -0.46575296       2.54505525      -0.78884708
H        1.67602761       4.79044738      -2.89889255
H       -1.33163079       7.21317451      -0.92037991
H       -1.49799500       9.48282938      -1.85092186
H        0.78676515       5.92109610      -4.44311462
H        0.75962377      10.34254185      -7.84452842
H       -0.86862885      10.06342100      -8.41427001
H        0.76516291       9.44918715     -10.16941968
H        1.58235609       8.33752088      -9.07167503
H       -1.28130869       8.09887237     -10.11994650
H        0.08391085       7.06787546     -10.54525312
H       -1.43843215       6.02407949      -8.83859187
H        0.21940373       6.18134827      -8.28246729
H       -2.14492944       7.99918831      -7.56345688
H       -1.32281161       6.88923782      -6.48809424
C       -0.59458617      10.36881563      -4.13797124
C       -0.74201647      11.50082405      -4.52688929
Br      -0.98039879      13.33118592      -5.15573688
C       -0.88297547      -0.88297547      -0.88297547
C       -2.10680763      -0.39139815      -1.33338793
C       -2.91357465      -1.19306028      -2.13552155
C       -2.49321690      -2.48000249      -2.47748490
C       -1.26232877      -2.97901599      -2.02520859
C       -0.45492701      -2.16842230      -1.22633627
N       -0.92431131      -4.28779849      -2.42882781
C        0.21973652      -4.99984453      -2.12037045
O        1.12671993      -4.64564267      -1.37967653
C        0.31608508      -6.34893388      -2.75453718
C        1.01290553      -7.35855337      -2.08388607
C        1.12173241      -8.63345055      -2.64812113
C        0.53713832      -8.91978035      -3.88956325
C       -0.15490915      -7.91009373      -4.56524959
C       -0.25196879      -6.62328139      -4.00386541
S       -0.99970724      -8.19847450      -6.10528451
O       -1.79535220      -9.39432140      -5.94202205
O       -1.63690068      -6.95380810      -6.48744194
N        0.26683487      -8.48528330      -7.19495707
C       -0.03334063      -9.36447245      -8.35070244
C       -0.62404235      -8.56959467      -9.50767851
C        0.30174327      -7.42687686      -9.91310574
C        0.63029980      -6.54272357      -8.71419594
C        1.16700840      -7.35785258      -7.53996215
H       -2.43715741       0.60872725      -1.06603626
H       -3.86868932      -0.81878512      -2.49524709
H       -3.14188281      -3.08428460      -3.10743628
H        0.50477516      -2.51513706      -0.85778746
H       -1.63393096      -4.76119204      -2.97024454
H        1.47262625      -7.15783038      -1.11671950
H        1.66867168      -9.40143016      -2.10299777
H       -0.75528383      -5.83580598      -4.55988606
H       -0.70688850     -10.17746644      -8.06233910
H        0.90103742      -9.84798169      -8.66211789
H       -0.78634888      -9.23218065     -10.36524021
H       -1.60285601      -8.16478615      -9.22390985
H        1.22968954      -7.83638423     -10.33081548
H       -0.16794093      -6.82787470     -10.70122381
H        1.36947439      -5.78799295      -9.00572065
H       -0.27108707      -5.99606548      -8.41606675
H        2.14970108      -7.77454774      -7.79286909
H        1.32779327      -6.70847627      -6.67383745
C        0.73288587     -10.25616513      -4.38892145
C        0.89682445     -11.37538738      -4.80713394
Br       1.16189926     -13.18507511      -5.48334817
C       -0.88297547       0.88297547       0.88297547
C       -0.51539453       2.20834238       1.10785680
C       -1.31572195       3.01401647       1.91241805
C       -2.47381628       2.48815130       2.48873670
C       -2.84680540       1.15406779       2.26568016
C       -2.04372594       0.35281908       1.45314056
N       -4.03593031       0.71806843       2.88693886
C       -4.61289086      -0.53659450       2.82418210
O       -4.15813131      -1.52591984       2.26638779
C       -5.91508551      -0.67134290       3.54364337
C       -6.25833542      -1.91382177       4.08502026
C       -7.46915071      -2.07512226       4.76581082
C       -8.35521972      -0.99943021       4.91641577
C       -8.01717866       0.24259591       4.37047790
C       -6.80518831       0.40092373       3.67300354
S       -9.03704938       1.68637639       4.58004048
O       -9.37150909       1.77667229       5.98351428
O       -8.36199933       2.79000161       3.92614979
N      -10.42142662       1.31858094       3.67339794
C      -11.69314117       1.94017687       4.11519747
C      -11.86860816       3.32544784       3.50725954
C      -11.78568055       3.26747409       1.98508468
C      -10.48879366       2.60094961       1.53687645
C      -10.29507306       1.23814197       2.19759129
H        0.38697753       2.61873772       0.66270624
H       -1.04045362       4.05020313       2.09206478
H       -3.08225399       3.14022004       3.11112966
H       -2.29756742      -0.68293261       1.25351456
H       -4.48132074       1.40475764       3.47928916
H       -5.58280717      -2.76233796       3.98145442
H       -7.71024401      -3.05350372       5.17901596
H       -6.57474263       1.36036396       3.21586927
H      -11.74730090       1.99235139       5.20704175
H      -12.51730957       1.28474842       3.80700416
H      -12.83821421       3.73915852       3.80639701
H      -11.09710922       4.00399612       3.89044667
H      -12.64112216       2.70468220       1.59170582
H      -11.84864078       4.27920786       1.56919079
H      -10.49338952       2.48355142       0.44729827
H       -9.64740345       3.26099435       1.77482149
H      -11.05241062       0.53438518       1.83091995
H       -9.32661319       0.81607473       1.91183254
C       -9.58401211      -1.28328007       5.61146866
C      -10.61312573      -1.52100432       6.19357546
Br     -12.27711542      -1.90538434       7.13479293
C        0.88297547      -0.88297547       0.88297547
C        0.35363080      -2.05249902       1.42546389
C        1.15391886      -2.85729015       2.23094747
C        2.47442300      -2.48519371       2.49108758
C        3.01079684      -1.30802892       1.94772759
C        2.20552668      -0.50828227       1.13587663
N        4.35537659      -1.02148712       2.26407389
C        5.10760613       0.06477774       1.85765007
O        4.72069690       1.01879362       1.19669598
C        6.53116511       0.05404063       2.31026150
C        7.17622002       1.27509683       2.52841072
C        8.50819661       1.30184479       2.95348745
C        9.21613033       0.11099363       3.16706858
C        8.57527092      -1.11141915       2.94356241
C        7.23932158      -1.13782088       2.50197312
S        9.36332108      -2.67473070       3.26541447
O        9.95150174      -2.59656513       4.58362879
O        8.39831635      -3.71407140       2.96576297
N       10.58028376      -2.74572916       2.08739258
C       11.79389982      -3.52680313       2.42781258
C       11.61293515      -5.00029824       2.08808214
C       11.23865623      -5.17951064       0.62007245
C       10.00687992      -4.35107994       0.26865986
C       10.17703199      -2.88690885       0.66686548
H       -0.67461587      -2.34241103       1.22667127
H        0.75253269      -3.77341980       2.65676904
H        3.07842950      -3.13346330       3.12171088
H        2.58215911       0.40839894       0.69438919
H        4.79018643      -1.67562424       2.89955687
H        6.64344646       2.21229887       2.37077603
H        8.98532798       2.26701737       3.11744564
H        6.76683993      -2.09408993       2.29004602
H       12.05547396      -3.40742152       3.48379855
H       12.63680023      -3.10922157       1.86304036
H       12.54067901      -5.54389590       2.29919483
H       10.83204662      -5.43831722       2.72118817
H       12.07943973      -4.87172986      -0.01365942
H       11.04913482      -6.23801905       0.40988557
H        9.81329309      -4.41881764      -0.80787152
H        9.13256361      -4.78130160       0.76935408
H       10.95170834      -2.41898517       0.04702224
H        9.25444717      -2.33325623       0.46681706
C       10.58858453       0.25487418       3.57849036
C       11.73801491       0.37537414       3.92305610
Br      13.59654663       0.57021237       4.48018976
