162
Properties=species:S:1:pos:R:3 pbc="F F F"
C        1.79140821       1.79140821      -1.79140821
C        1.22191960       2.83772778      -2.51283393
C        2.03053114       3.64685008      -3.31801587
C        3.41356944       3.41986834      -3.40646366
C        3.96571840       2.35762992      -2.67294153
C        3.15986157       1.54541453      -1.86863794
C        4.27946013       4.25858367      -4.22548986
N        5.58823528       4.22722217      -4.39005552
N        5.90337971       5.25273309      -5.25823296
C        4.76395670       5.83353585      -5.56245037
C        4.50946084       6.98253667      -6.45677564
C        4.90414195       6.68429801      -7.89368841
S        3.73023279       5.59774776      -8.67813128
O        3.86515876       4.27368116      -8.10731816
O        2.44368224       6.26930146      -8.70702785
C        4.30036496       5.51747187     -10.36202227
C        4.16122405       6.64438574     -11.17953871
C        4.59111511       6.58848953     -12.50630414
C        5.13880890       5.40678593     -13.00787388
Br       5.70778701       5.33157992     -14.80890200
C        5.26321602       4.27838759     -12.19490754
C        4.84033537       4.33032162     -10.86434719
O        3.68796841       5.27156351      -4.93769299
H        0.15406498       3.03359606      -2.45821904
H        1.56598864       4.45801829      -3.87574918
H        5.03509678       2.15557441      -2.72492280
H        3.61063318       0.72894759      -1.31035433
H        5.10701216       7.82827751      -6.09515576
H        3.45993569       7.29030645      -6.39435453
H        5.89451906       6.22436479      -7.96768427
H        4.90238958       7.61825228      -8.46524419
H        3.70908043       7.55904518     -10.80104000
H        4.48429582       7.46323072     -13.14403576
H        5.67698530       3.35358132     -12.59073833
H        4.92760365       3.44413714     -10.23992489
C       -1.79140821      -1.79140821      -1.79140821
C       -2.77253076      -1.20954718      -2.59040338
C       -3.57790753      -2.01744793      -3.40004162
C       -3.40783265      -3.41128543      -3.42078337
C       -2.41472135      -3.97655262      -2.60501587
C       -1.60920092      -3.17196630      -1.79274682
C       -4.22323014      -4.27275110      -4.26755242
N       -4.17456606      -5.57824275      -4.45270416
N       -5.15734138      -5.88527725      -5.37172713
C       -5.73600178      -4.74544768      -5.67849346
C       -6.85509186      -4.48527567      -6.60840562
C       -8.13375268      -5.17920460      -6.16917110
S       -8.87675167      -4.35248854      -4.77687162
O       -8.05793429      -4.58329553      -3.60492827
O       -9.22767335      -3.00509173      -5.18724647
C      -10.40811971      -5.22846197      -4.54327742
C      -11.43073055      -5.06952750      -5.48489045
C      -12.64166717      -5.73982511      -5.30441650
C      -12.82604658      -6.54676012      -4.18066200
Br     -14.47222286      -7.44240452      -3.93364154
C      -11.80985975      -6.69246160      -3.23418981
C      -10.59342457      -6.02888284      -3.41269677
O       -5.19266647      -3.67299614      -5.03156230
H       -2.92091840      -0.13268217      -2.59227952
H       -4.34058599      -1.54370354      -4.01546658
H       -2.26240191      -5.05536941      -2.59782267
H       -0.84714427      -3.63306333      -1.16972749
H       -6.56736684      -4.86772946      -7.59534913
H       -7.01367658      -3.40743971      -6.72348037
H       -7.96753200      -6.22531946      -5.89371665
H       -8.86081707      -5.13819078      -6.98687819
H      -11.30182575      -4.41934696      -6.34799289
H      -13.43832244      -5.61818748      -6.03505239
H      -11.95965936      -7.31015856      -2.35148703
H       -9.81060660      -6.13576696      -2.66529212
C       -1.79140821       1.79140821       1.79140821
C       -1.69417861       3.17771789       1.70058482
C       -2.50417017       3.98484273       2.50638419
C       -3.41930317       3.41453606       3.40606222
C       -3.49829089       2.01485976       3.48313920
C       -2.68844832       1.20494473       2.68052099
C       -4.28531790       4.23373690       4.24447886
N       -5.22598907       3.88005636       5.09946754
N       -5.75340501       5.04708660       5.61385416
C       -5.09453371       6.02786309       5.03754611
C       -5.24141531       7.48727960       5.22007824
C       -4.92179106       7.91853623       6.64180109
S       -3.16775173       7.88622553       6.95213456
O       -2.72876432       6.50741131       7.00998246
O       -2.53333892       8.83325369       6.05341894
C       -3.02395700       8.56499321       8.59090889
C       -3.27243501       9.92823052       8.78448297
C       -3.14824732      10.47491965      10.06274180
C       -2.76217373       9.66185709      11.12943789
Br      -2.58270259      10.40915858      12.85640775
C       -2.50004471       8.30469430      10.93177215
C       -2.62868970       7.75061580       9.65569866
O       -4.15576843       5.59629921       4.14515727
H       -0.99451786       3.64147572       1.00988651
H       -2.41149887       5.06612600       2.42213124
H       -4.19657927       1.54439089       4.17462382
H       -2.76775579       0.12368422       2.75849508
H       -6.28270374       7.75038825       4.99735344
H       -4.61978921       8.02728895       4.49751850
H       -5.41057009       7.28634226       7.38965576
H       -5.24940505       8.95380028       6.78268071
H       -3.54635296      10.57193928       7.95087336
H       -3.34102709      11.53445073      10.21608448
H       -2.18536983       7.67496324      11.76097187
H       -2.41026761       6.69581817       9.50557989
C        1.79140821      -1.79140821       1.79140821
C        3.14621384      -1.92738233       1.49888515
C        3.95395255      -2.73282982       2.30861472
C        3.41638635      -3.40560664       3.41790846
C        2.04751861      -3.25653895       3.69223229
C        1.23664928      -2.45376037       2.88350439
C        4.24020583      -4.23743268       4.28589516
N        3.92460820      -4.89620116       5.38470361
N        5.08014495      -5.50869575       5.82550505
C        6.01611588      -5.18149064       4.96233640
C        7.44369300      -5.56405825       4.94102190
C        7.62905154      -7.06465580       4.78842105
S        7.28804417      -7.59569475       3.12237291
O        5.86291924      -7.49951502       2.88372382
O        8.23736021      -6.94434625       2.23830509
C        7.71397880      -9.32345673       3.14242357
C        9.06144407      -9.68868476       3.23501967
C        9.40872515     -11.04058363       3.23659999
C        8.41228353     -12.01194460       3.12924057
Br       8.88821017     -13.84128291       3.11877585
C        7.06922045     -11.64544470       3.02184601
C        6.71509539     -10.29396598       3.02594280
O        5.56793532      -4.36572763       3.96356196
H        3.58474455      -1.41446138       0.64667416
H        5.00986297      -2.82797711       2.06191603
H        1.60210159      -3.76938498       4.54410743
H        0.17954767      -2.35423549       3.11615193
H        7.89011222      -5.24841914       5.89191407
H        7.97305140      -5.02127406       4.15027120
H        6.98574593      -7.63568696       5.46513523
H        8.67439750      -7.31764002       4.99384852
H        9.84403807      -8.93452670       3.29060084
H       10.45556287     -11.32732405       3.30867539
H        6.29466435     -12.40281426       2.92382633
H        5.66854440     -10.01449941       2.92862187
C       -0.00445707       0.01189536      -1.78238275
H       -0.66409135       0.67374010      -2.43557963
H        0.65740317      -0.63156657      -2.45157240
C       -0.90989263      -0.90692880      -0.91072765
C        0.90977584       0.90977584      -0.90977584
C       -0.00465871       1.77757030       0.00794375
H       -0.66225468       2.44313916      -0.64384735
H        0.64322798       2.43503045       0.67728295
C       -1.78241447       0.00034974      -0.00472694
H       -2.45427497      -0.65498947       0.64260836
H       -2.43311707       0.67328779      -0.65473579
C       -0.91132561       0.90220522       0.91563759
C       -0.01476271      -0.02253852       1.78660255
H       -0.67934791      -0.69751639       2.42135241
H        0.63392994       0.61504881       2.47327442
C        0.01484550      -1.77751727      -0.01636693
H        0.67870853      -2.42144646      -0.68295456
H       -0.62264859      -2.45592969       0.64226336
C        1.78714474       0.01002794       0.00389507
H        2.44202412       0.67113390       0.66197326
H        2.45385902      -0.65136977      -0.64189061
C        0.91606151      -0.90478549       0.90901405
