141
Properties=species:S:1:pos:R:3 pbc="F F F"
C        0.00000000       0.00000000       0.00000000
C        0.88150419       0.88150419      -0.88150419
C        0.31201557       1.92782376      -1.60292991
C        1.12062711       2.73694605      -2.40811185
C        2.50366542       2.50996432      -2.49655964
C        3.05581437       1.44772589      -1.76303751
C        2.24995755       0.63551051      -0.95873392
C        3.36955611       3.34867964      -3.31558584
N        4.67833126       3.31731814      -3.48015149
N        4.99347569       4.34282906      -4.34832894
C        3.85405267       4.92363183      -4.65254634
C        3.59955682       6.07263265      -5.54687162
C        3.99423793       5.77439399      -6.98378439
S        2.82032877       4.68784373      -7.76822726
O        2.95525474       3.36377713      -7.19741414
O        1.53377821       5.35939743      -7.79712383
C        3.39046094       4.60756784      -9.45211825
C        3.25132003       5.73448172     -10.26963468
C        3.68121108       5.67858550     -11.59640012
C        4.22890487       4.49688190     -12.09796986
Br       4.79788299       4.42167589     -13.89899798
C        4.35331200       3.36848356     -11.28500352
C        3.93043134       3.42041759      -9.95444316
O        2.77806439       4.36165948      -4.02778897
H       -0.75583904       2.12369204      -1.54831501
H        0.65608461       3.54811427      -2.96584516
H        4.12519276       1.24567038      -1.81501878
H        2.70072915      -0.18095644      -0.40045030
H        4.19710814       6.91837348      -5.18525173
H        2.55003166       6.38040243      -5.48445050
H        4.98461504       5.31446076      -7.05778025
H        3.99248555       6.70834825      -7.55534016
H        2.79917640       6.64914115      -9.89113598
H        3.57439180       6.55332670     -12.23413173
H        4.76708127       2.44367729     -11.68083430
H        4.01769963       2.53423312      -9.33002086
C       -0.88150419      -0.88150419      -0.88150419
C       -2.16774400      -1.21252836      -0.46249688
C       -2.97597395      -2.01779058      -1.27192048
C       -2.50783732      -2.49568197      -2.50667009
C       -1.20692604      -2.15200006      -2.90765168
C       -0.39543999      -1.34888073      -2.09988126
C       -3.33617174      -3.32260912      -3.37504073
N       -3.08727026      -3.81487324      -4.57365739
N       -4.21460082      -4.51218586      -4.95784701
C       -5.06831247      -4.39709469      -3.96482368
C       -6.43265388      -4.95085473      -3.83555247
C       -6.43413205      -6.47048814      -3.84779612
S       -5.83700940      -7.13358872      -2.30580164
O       -4.41233091      -6.89087964      -2.21323546
O       -6.73650527      -6.70259262      -1.25120159
C       -6.07223931      -8.88793526      -2.48997247
C       -7.37330832      -9.40246545      -2.47966266
C       -7.56946381     -10.77840334      -2.60832955
C       -6.46791149     -11.62693561      -2.72890954
Br      -6.73772410     -13.49090110      -2.88993165
C       -5.16951985     -11.11329261      -2.72398662
C       -4.96725851      -9.73631915      -2.60171444
O       -4.59289785      -3.64599076      -2.92862423
H       -2.55216611      -0.85238866       0.48838676
H       -3.97733942      -2.26713138      -0.92557323
H       -0.81567710      -2.51126291      -3.85894190
H        0.60833850      -1.09660018      -2.43196134
H       -7.02323691      -4.59070082      -4.68679564
H       -6.91741750      -4.56565541      -2.93181168
H       -5.81998412      -6.88203827      -4.65483366
H       -7.46306115      -6.82521281      -3.96790000
H       -8.23400429      -8.74777622      -2.35767302
H       -8.57994826     -11.18108057      -2.60082140
H       -4.31123280     -11.77673408      -2.80362598
H       -3.95319065      -9.34359203      -2.58517092
C       -0.88150419       0.88150419       0.88150419
C       -0.82907319       2.26668293       0.74701312
C       -1.63910120       3.07368321       1.55290061
C       -2.50964428       2.50423477       2.49631033
C       -2.54384893       1.10582137       2.61690747
C       -1.73379155       0.29612548       1.81428495
C       -3.37505165       3.32264054       3.33612940
N       -4.27899435       2.96751795       4.22928859
N       -4.82618955       4.13358174       4.72486240
C       -4.21460936       5.11539725       4.10022423
C       -4.40024330       6.57472239       4.24409539
C       -4.05213944       7.05811325       5.64216362
S       -2.28955374       7.08686504       5.89998097
O       -1.80744450       5.72395647       5.98504504
O       -1.71087554       8.02446577       4.95495816
C       -2.11823988       7.81895294       7.51295421
C       -2.40213795       9.17952955       7.67376893
C       -2.25701876       9.76814748       8.93103047
C       -1.81524069       8.99952042      10.00899552
Br      -1.60776485       9.80380536      11.70698664
C       -1.51800843       7.64529058       9.84350007
C       -1.66729256       7.04922497       8.58877456
O       -3.28985965       4.68478663       3.19286656
H       -0.16442841       2.72967329       0.02206631
H       -1.58178137       4.15417311       1.43408956
H       -3.20689592       0.63619020       3.34279580
H       -1.77794495      -0.78413876       1.92641683
H       -5.45513514       6.80019597       4.04540225
H       -3.81681344       7.11063335       3.48743780
H       -4.49930102       6.43477687       6.42277816
H       -4.40670812       8.08708260       5.76238324
H       -2.71986509       9.78932310       6.83026534
H       -2.47724274      10.82570842       9.05889907
H       -1.16011443       7.05052804      10.68095040
H       -1.42149782       5.99724570       8.46321009
C        0.88150419      -0.88150419       0.88150419
C        1.73647749      -0.29497178       1.81131997
C        2.54172940      -1.10323858       2.62071704
C        2.49716803      -2.50252561       2.51049572
C        1.63018604      -3.07206665       1.56432508
C        0.82530894      -2.26686347       0.75202956
C        3.31413009      -3.36647867       3.35321282
N        3.36846445      -4.68288701       3.42444944
N        4.29545899      -4.98925629       4.39991840
C        4.74135292      -3.83781654       4.85106138
C        5.75147900      -3.57095069       5.89663140
C        7.11957985      -4.11405770       5.51877875
S        7.89758416      -3.10623005       4.27258554
O        7.20285826      -3.29721330       3.01637445
O        8.09011971      -1.77701191       4.82316785
C        9.51590518      -3.82766139       4.10658046
C       10.43845840      -3.67031746       5.14666057
C       11.71577968      -4.21896223       5.02145480
C       12.06475445      -4.90299817       3.85600401
Br      13.79990744      -5.63323044       3.68541898
C       11.14778348      -5.04623777       2.81277783
C        9.86577513      -4.50453883       2.93497813
O        4.15878588      -2.75999382       4.24873314
H        1.78628394       0.78589300       1.91577707
H        3.20487877      -0.62551159       3.33965368
H        1.57709416      -4.15471368       1.45407408
H        0.16226283      -2.73130073       0.02665946
H        5.41874334      -4.06353155       6.81845847
H        5.80194272      -2.49850651       6.11443536
H        7.07195413      -5.14116029       5.14374162
H        7.76973265      -4.08702627       6.39941504
H       10.18029183      -3.11370667       6.04545503
H       12.43492462      -4.09828352       5.82864209
H       11.42537536      -5.56710828       1.89910923
H        9.16041880      -4.60791403       2.11362078
