185
Properties=species:S:1:pos:R:3 pbc="F F F"
C        0.00000000       0.00000000       0.00000000
O        7.07150455       4.22649393      -8.04768468
C        6.11392885       4.52053992      -7.34115841
C        5.24078370       3.50278222      -6.65849660
C        4.68777781       3.94563622      -5.30495117
C        3.93167414       2.80673977      -4.64389533
O        3.89927933       1.68756893      -5.14817239
N        3.32341795       3.17297350      -3.46183800
C        2.51367504       2.36884650      -2.61149783
C        2.22592982       1.02967958      -2.88858647
C        1.41717487       0.29233471      -2.03179816
C        0.89022561       0.89022561      -0.89022561
C        1.16927327       2.24447640      -0.58383417
C        0.67245483       2.91766402       0.55476038
C        0.98965180       4.24865333       0.79059449
C        1.80162648       4.88611029      -0.12083290
N        2.30229298       4.29150130      -1.22601996
C        1.99557602       2.99119947      -1.46070626
O        5.67530020       5.79146376      -7.14163871
C        6.38122249       6.76495403      -7.91552970
C        5.94085167       6.75865734      -9.37859994
O        4.78636994       6.49371761      -9.71359189
C        6.91521054       7.17475233     -10.42308968
C        6.43662468       7.89738516     -11.52538062
C        7.31561210       8.32413682     -12.52423539
C        8.67120936       8.01702098     -12.42644097
C        9.15265573       7.27646362     -11.34702461
C        8.27384926       6.84895269     -10.34584229
H        5.85244902       2.60177657      -6.52258067
H        4.42361286       3.24751362      -7.34296027
H        4.00545925       4.79431495      -5.42794963
H        5.50455219       4.25493979      -4.64284781
H        3.42450183       4.12937271      -3.12532469
H        2.61385579       0.52736659      -3.76826903
H        1.20579288      -0.74761504      -2.27066491
H        0.03067351       2.41226089       1.27206387
H        0.61048866       4.76822270       1.66309105
H        2.08163253       5.92704518       0.01537765
H        7.45922278       6.64156819      -7.78412361
H        6.12397863       7.74860947      -7.50816713
H        5.37644292       8.13112995     -11.60943767
H        6.93259000       8.88814225     -13.37111141
H       10.20663104       7.01630504     -11.28184526
H        8.66667321       6.23485365      -9.53940134
C        9.58039611       8.45978358     -13.45159497
C       10.34184002       8.83059726     -14.31016144
Br      11.57303042       9.43017162     -15.69839081
O       -6.76504353      -8.25661017      -4.32402945
C       -6.53476705      -7.05425789      -4.38660225
C       -5.76868623      -6.29860647      -3.33476982
C       -4.92346834      -5.14427247      -3.87062439
C       -4.09452990      -4.53287071      -2.75490864
O       -4.08766004      -5.01974649      -1.62761413
N       -3.38278347      -3.42136639      -3.15407959
C       -2.53997754      -2.59356647      -2.36047536
C       -2.31664612      -2.82674190      -1.00080784
C       -1.49509622      -1.97867637      -0.26753515
C       -0.89022561      -0.89022561      -0.89022561
C       -1.09658574      -0.63338787      -2.26761023
C       -0.51656342       0.44848360      -2.96727865
C       -0.76432800       0.63698316      -4.32036580
C       -1.59195700      -0.26377212      -4.95284055
N       -2.17376565      -1.31364165      -4.33240692
C       -1.93457081      -1.50229570      -3.01061523
O       -6.99916910      -6.23910970      -5.37012388
C       -7.87302150      -6.89851669      -6.29016803
C       -9.26629452      -7.11152602      -5.70028840
O       -9.77016609      -6.31595893      -4.90755443
C      -10.07480415      -8.26908115      -6.16916725
C      -11.46083278      -8.10019737      -6.29836031
C      -12.26036900      -9.15321688      -6.75039842
C      -11.67476971     -10.37880592      -7.06109567
C      -10.30057851     -10.56444440      -6.91112106
C       -9.49865708      -9.51084678      -6.45914038
H       -5.11464730      -7.02556662      -2.83659234
H       -6.48728624      -5.93607995      -2.59072055
H       -5.56456992      -4.36504785      -4.29810606
H       -4.24640865      -5.50056949      -4.65536166
H       -3.45052294      -3.10758517      -4.12109113
H       -2.77087507      -3.66122335      -0.47739300
H       -1.33894522      -2.17989017       0.78999264
H        0.13553925       1.15875066      -2.46516044
H       -0.32094127       1.46569619      -4.86037523
H       -1.81886978      -0.16375716      -6.01067311
H       -7.40975648      -7.81784657      -6.65731153
H       -7.98944544      -6.23641136      -7.15489843
H      -11.92279213      -7.14655612      -6.04766229
H      -13.33306835      -9.00767527      -6.85110005
H       -9.84603865     -11.52767406      -7.13106863
H       -8.43808542      -9.69523785      -6.30760492
C      -12.49534276     -11.46437107      -7.53206083
C      -13.18257270     -12.37353187      -7.92649415
Br     -14.29376537     -13.84356800      -8.56425948
O       -5.21049111       5.39672627       8.73846578
C       -4.85398322       5.54640325       7.57524072
C       -3.84118730       4.66481307       6.89606215
C       -4.08636461       4.44825593       5.40374466
C       -3.09147302       3.44705378       4.84378244
O       -2.29579906       2.86406233       5.57515926
N       -3.19724471       3.28210797       3.47887677
C       -2.40354397       2.45461940       2.63585599
C       -1.36275845       1.65902447       3.12241294
C       -0.60824153       0.87949662       2.25356959
C       -0.89022561       0.89022561       0.89022561
C       -1.94185040       1.68434736       0.37138608
C       -2.28723776       1.74544998      -0.99732927
C       -3.33321504       2.54774179      -1.43324620
C       -4.01837496       3.27852532      -0.48833061
N       -3.72943405       3.25894005       0.83144013
C       -2.70865658       2.47646835       1.26235682
O       -5.26953268       6.56363491       6.77523509
C       -6.09937560       7.51404718       7.44828343
C       -5.28649700       8.44649113       8.34512081
O       -4.13986448       8.79266405       8.06115091
C       -5.93451356       9.02611594       9.55242305
C       -5.60421427      10.33963669       9.91553949
C       -6.19867150      10.93318666      11.03212615
C       -7.11397519      10.20820712      11.79248899
C       -7.42941845       8.89232426      11.45440125
C       -6.83543266       8.29686055      10.33635103
H       -3.86848789       3.69648693       7.41183144
H       -2.84961352       5.10084493       7.06362830
H       -3.97992071       5.39157074       4.85623239
H       -5.09989494       4.06642557       5.23601928
H       -3.90391494       3.80823442       2.96704987
H       -1.10876337       1.62430956       4.17641848
H        0.19821237       0.27070111       2.65635401
H       -1.74385445       1.16831152      -1.74129544
H       -3.60110107       2.59694756      -2.48242832
H       -4.84574611       3.92202011      -0.77446617
H       -6.91018412       7.00203434       7.97269612
H       -6.56567523       8.13735083       6.67772917
H       -4.88244571      10.90575330       9.32881153
H       -5.93781764      11.95408771      11.29993831
H       -8.12595686       8.31798664      12.06083785
H       -7.06368414       7.25599100      10.12125306
C       -7.73215524      10.81883070      12.94078872
C       -8.24988103      11.33022795      13.90248974
Br      -9.08699984      12.15711405      15.45747896
O        8.61880169      -6.00294077       4.72394069
C        7.61165696      -5.36191969       5.00205053
C        6.94780693      -4.40267562       4.05157996
C        5.42763337      -4.32723648       4.18349535
C        4.84605355      -3.43554842       3.10070727
O        5.55661333      -2.95801545       2.22039188
N        3.48574231      -3.24732733       3.22515981
C        2.63707992      -2.44841902       2.40852043
C        3.11043131      -1.71972305       1.31404151
C        2.24101484      -0.94309857       0.55719433
C        0.89022561      -0.89022561       0.89022561
C        0.38370024      -1.62196423       1.99191938
C       -0.97233226      -1.61881591       2.38887482
C       -1.39679487      -2.36308047       3.48142503
C       -0.45320476      -3.10057886       4.16119557
N        0.85526106      -3.13826396       3.82628921
C        1.27485986      -2.41312835       2.75949354
O        7.00906057      -5.37908238       6.22025973
C        7.71764890      -6.14945020       7.19460712
C        8.94470253      -5.40902903       7.72437738
O        8.97093827      -4.18370993       7.83903125
C       10.11006786      -6.20110488       8.20187981
C       10.82664762      -5.72399161       9.30875123
C       11.91884665      -6.44108853       9.80404914
C       12.30164413      -7.62884317       9.18418400
C       11.61117693      -8.09810358       8.06686345
C       10.51704447      -7.38147327       7.57012651
H        7.20742914      -4.73198257       3.03739455
H        7.39655866      -3.41423021       4.20329788
H        5.14677054      -3.91971360       5.16123969
H        4.98730965      -5.32638073       4.08864942
H        2.98798464      -3.70217954       3.98903505
H        4.15530945      -1.73124725       1.02293471
H        2.63417307      -0.38306905      -0.28839937
H       -1.71492884      -1.03473918       1.85106019
H       -2.43628905      -2.36320743       3.78870193
H       -0.73091388      -3.70138556       5.02282836
H        7.94504542      -7.14211191       6.79775725
H        7.04118783      -6.29608067       8.04348673
H       10.53574912      -4.79144545       9.78981597
H       12.46282535      -6.06293854      10.66607977
H       11.92369299      -9.01275819       7.56833016
H       10.02479312      -7.74465403       6.67148106
C       13.42362667      -8.37278882       9.69535917
C       14.36328705      -8.99584329      10.12346838
Br      15.88263841     -10.00326969      10.81568476
