198
Properties=species:S:1:pos:R:3 pbc="F F F"
O        7.98140857       5.13639795      -8.95758870
C        7.02383288       5.43044394      -8.25106244
C        6.15068772       4.41268624      -7.56840062
C        5.59768183       4.85554024      -6.21485520
C        4.84157816       3.71664380      -5.55379936
O        4.80918336       2.59747296      -6.05807641
N        4.23332197       4.08287752      -4.37174203
C        3.42357906       3.27875052      -3.52140186
C        3.13583384       1.93958360      -3.79849049
C        2.32707889       1.20223874      -2.94170218
C        1.80012964       1.80012964      -1.80012964
C        2.07917730       3.15438043      -1.49373820
C        1.58235886       3.82756804      -0.35514364
C        1.89955582       5.15855735      -0.11930953
C        2.71153050       5.79601432      -1.03073692
N        3.21219700       5.20140532      -2.13592398
C        2.90548005       3.90110349      -2.37061028
O        6.58520423       6.70136779      -8.05154273
C        7.29112651       7.67485806      -8.82543372
C        6.85075569       7.66856136     -10.28850396
O        5.69627397       7.40362163     -10.62349591
C        7.82511456       8.08465636     -11.33299370
C        7.34652870       8.80728919     -12.43528464
C        8.22551613       9.23404084     -13.43413941
C        9.58111338       8.92692500     -13.33634499
Br      10.77450796       9.50809327     -14.68195767
C       10.06255976       8.18636764     -12.25692864
C        9.18375328       7.75885671     -11.25574632
H        6.76235305       3.51168059      -7.43248470
H        5.33351688       4.15741764      -8.25286430
H        4.91536327       5.70421898      -6.33785366
H        6.41445622       5.16484382      -5.55275184
H        4.33440586       5.03927674      -4.03522871
H        3.52375981       1.43727061      -4.67817306
H        2.11569690       0.16228899      -3.18056893
H        0.94057754       3.32216491       0.36215985
H        1.52039268       5.67812672       0.75318703
H        2.99153655       6.83694920      -0.89452638
H        8.36912681       7.55147221      -8.69402764
H        7.03388266       8.65851349      -8.41807116
H        6.28634695       9.04103397     -12.51934169
H        7.84249403       9.79804628     -14.28101544
H       11.11653507       7.92620906     -12.19174929
H        9.57657723       7.14475767     -10.44930537
O       -7.37211242      -9.33690686      -5.36637594
C       -7.23636491      -8.11875033      -5.35022402
C       -6.44688026      -7.38400555      -4.30088878
C       -5.73375929      -6.13013999      -4.80417800
C       -4.86613883      -5.53850908      -3.70737341
O       -4.73427418      -6.10471122      -2.62574732
N       -4.27173743      -4.34782643      -4.06837766
C       -3.43172838      -3.51632849      -3.27567457
C       -3.08487407      -3.83021557      -1.95881830
C       -2.27226353      -2.97582756      -1.22292872
C       -1.80012964      -1.80012964      -1.80012964
C       -2.13325180      -1.46007404      -3.13397008
C       -1.69143666      -0.28723711      -3.78639677
C       -2.05878175      -0.02018321      -5.09845775
C       -2.86558394      -0.93483074      -5.73786706
N       -3.31780051      -2.07018037      -5.16154542
C       -2.96144309      -2.33577041      -3.87998032
O       -7.83578367      -7.27299277      -6.22933830
C       -8.72903099      -7.93026430      -7.13212300
C      -10.05179392      -8.29569319      -6.46033391
O      -10.54829153      -7.60286567      -5.57223432
C      -10.80778450      -9.47612841      -6.95885171
C      -12.20833585      -9.40855988      -6.97220680
C      -12.96174182     -10.48559556      -7.44635901
C      -12.31425147     -11.63482610      -7.89530581
Br     -13.32945385     -13.09137258      -8.54373248
C      -10.92259251     -11.72151405      -7.86174947
C      -10.16686226     -10.64371046      -7.38778359
H       -5.70385567      -8.09145370      -3.91120896
H       -7.12893245      -7.13512585      -3.47974052
H       -6.46215635      -5.37489548      -5.12038407
H       -5.09668511      -6.37313206      -5.66223470
H       -4.43871622      -3.97029015      -4.99990494
H       -3.43374778      -4.73421017      -1.47124553
H       -2.01847896      -3.24109210      -0.19898377
H       -1.05548438       0.43369526      -3.27879348
H       -1.72157828       0.87843540      -5.60218950
H       -3.18231499      -0.77575699      -6.76494014
H       -8.23010391      -8.78057653      -7.60394621
H       -8.96186540      -7.21780283      -7.93079907
H      -12.71770790      -8.51548904      -6.61352567
H      -14.04682606     -10.41849995      -7.45622973
H      -10.41745681     -12.62696142      -8.19007518
H       -9.08695684     -10.75411922      -7.32956421
O       -5.16003415       9.02034807       7.89501300
C       -5.45915563       8.28586751       6.96031611
C       -4.44580244       7.60632452       6.07964762
C       -4.86994941       6.23104306       5.56708480
C       -3.73340786       5.57844978       4.80016368
O       -2.62699000       6.10661767       4.73112505
N       -4.08610113       4.37501685       4.22682355
C       -3.28104815       3.52457235       3.41811094
C       -1.95525670       3.82475155       3.09389969
C       -1.21678349       2.96639987       2.28783645
C       -1.80012964       1.80012964       1.80012964
C       -3.14052439       1.47012932       2.11664221
C       -3.79852698       0.30584664       1.66069692
C       -5.11642825       0.04775261       2.01324185
C       -5.75623492       0.96300975       2.81903708
N       -5.17592600       2.09224230       3.28135801
C       -3.88843759       2.34874513       2.94001110
O       -6.73465182       8.04821838       6.55524454
C       -7.70955228       8.81612615       7.26573985
C       -7.74631801      10.26858285       6.79292016
O       -7.51479720      10.58304422       5.62555009
C       -8.16429007      11.32544900       7.75302555
C       -8.92226257      12.40023362       7.26660634
C       -9.35196861      13.40908232       8.13264545
C       -9.01264539      13.34899014       9.48274785
Br      -9.59758459      14.70813745      10.65883687
C       -8.23721397      12.29753209       9.97110998
C       -7.80669209      11.28637802       9.10528621
H       -3.52856280       7.50441794       6.67353759
H       -4.22439501       8.27753588       5.24186793
H       -5.73616571       6.31959552       4.90167468
H       -5.14588175       5.58097033       6.40519979
H       -5.03211728       4.01970864       4.35708539
H       -1.46457596       4.72397806       3.45064946
H       -0.18749096       3.22346043       2.04760343
H       -3.29133759      -0.41445075       1.02369576
H       -5.62432521      -0.84447594       1.66548311
H       -6.78732065       0.81009199       3.12559949
H       -7.55927364       8.71204222       8.34331079
H       -8.68916654       8.38125060       7.04005016
H       -9.18137151      12.45494404       6.21040707
H       -9.94346145      14.23428099       7.74381330
H       -7.95227184      12.26213596      11.02008561
H       -7.16583250      10.50293058       9.50187719
O        9.55390400      -5.68938357       6.83210766
C        8.34089152      -5.51374584       6.85070190
C        7.63800267      -4.47723084       6.01654108
C        6.24034318      -4.87917620       5.54855789
C        5.67254282      -3.82675907       4.61271943
O        6.34585000      -2.86433624       4.25454649
N        4.37213407      -4.08324108       4.23256637
C        3.53449060      -3.29088821       3.39835263
C        3.95874320      -2.08819197       2.82697276
C        3.09542960      -1.34479596       2.03079425
C        1.80012964      -1.80012964       1.80012964
C        1.34605467      -3.01742793       2.36381332
C        0.04844756      -3.54315722       2.17346576
C       -0.32626566      -4.74535872       2.75832965
C        0.60754336      -5.40357100       3.52716738
N        1.86024618      -4.94575893       3.74352119
C        2.23126025      -3.77187896       3.17405460
O        7.48681505      -6.17767456       7.67362513
C        8.14730045      -7.04599956       8.59811828
C        8.78305381      -6.27250078       9.75226642
O        8.28771336      -5.23756258      10.19811558
C        9.98811809      -6.83750259      10.41714395
C       10.12358839      -6.66356626      11.80194787
C       11.22989794      -7.18996477      12.47383367
C       12.20672625      -7.87938703      11.75827010
Br      13.70141634      -8.59880039      12.66434217
C       12.09386527      -8.03515285      10.37683792
C       10.98644097      -7.50911973       9.70279561
H        8.27356580      -4.29164675       5.14130578
H        7.59677736      -3.54900354       6.59801792
H        5.56505145      -4.98757041       6.40481405
H        6.27765489      -5.83707369       5.01732329
H        3.90805292      -4.92134184       4.57951654
H        4.95818193      -1.69693338       2.98408817
H        3.44842621      -0.41068312       1.59944549
H       -0.68713404      -3.02080411       1.56691253
H       -1.32077848      -5.15177781       2.61433305
H        0.36749680      -6.34821485       4.00730048
H        8.84949787      -7.69564561       8.06948318
H        7.38094657      -7.69674883       9.03277191
H        9.36663382      -6.11740932      12.36267947
H       11.32044421      -7.05259717      13.54851436
H       12.86742111      -8.55278497       9.81428734
H       10.94526679      -7.60468136       8.62069212
C       -0.00445707       0.01189536      -1.78238275
H       -0.66409135       0.67374010      -2.43557963
H        0.65740317      -0.63156657      -2.45157240
C       -0.90989263      -0.90692880      -0.91072765
C        0.90977584       0.90977584      -0.90977584
C       -0.00465871       1.77757030       0.00794375
H       -0.66225468       2.44313916      -0.64384735
H        0.64322798       2.43503045       0.67728295
C       -1.78241447       0.00034974      -0.00472694
H       -2.45427497      -0.65498947       0.64260836
H       -2.43311707       0.67328779      -0.65473579
C       -0.91132561       0.90220522       0.91563759
C       -0.01476271      -0.02253852       1.78660255
H       -0.67934791      -0.69751639       2.42135241
H        0.63392994       0.61504881       2.47327442
C        0.01484550      -1.77751727      -0.01636693
H        0.67870853      -2.42144646      -0.68295456
H       -0.62264859      -2.45592969       0.64226336
C        1.78714474       0.01002794       0.00389507
H        2.44202412       0.67113390       0.66197326
H        2.45385902      -0.65136977      -0.64189061
C        0.91606151      -0.90478549       0.90901405
