185
Properties=species:S:1:pos:R:3 pbc="F F F"
C        0.00000000       0.00000000       0.00000000
C        0.88107563       0.88107563      -0.88107563
C        2.03477589       1.45485807      -0.36116623
C        2.82867890       2.27415844      -1.17477626
C        2.50121959       2.52530060      -2.52269559
C        1.35785683       1.88572752      -3.02815795
C        0.53822111       1.09459376      -2.21047028
C        3.42625377       3.35366303      -3.33370971
N        4.61264197       3.74733489      -2.88633389
N        5.37420918       4.14044517      -3.94742498
C        4.63448882       4.06518133      -5.03137114
S        5.30299072       4.11397848      -6.62653183
C        4.98317036       5.72809585      -7.36471444
C        3.88726034       6.59633028      -6.79510566
O        2.78261205       6.65642629      -7.34742146
N        4.07304249       7.39648670      -5.71053624
C        5.19512570       7.52203775      -4.89346288
N        6.33656409       6.89602329      -5.21728849
C        7.34087645       6.89159650      -4.31443136
C        7.27934680       7.54753488      -3.10395668
C        6.12066655       8.25524007      -2.82647202
C        5.06027459       8.25688974      -3.72645730
N        3.33038432       3.73955032      -4.67927162
C        2.15452446       3.88983877      -5.46308922
C        1.01739052       4.47186687      -4.88081721
C       -0.12449948       4.69459787      -5.65329593
C       -0.12911380       4.36303697      -7.00689287
C        0.99538180       3.78282113      -7.58604532
C        2.12886056       3.52975064      -6.81449703
H        2.33336221       1.26928884       0.66709505
H        3.73721861       2.69941964      -0.74552397
H        1.07155290       1.96084608      -4.07102860
H       -0.35457073       0.63840639      -2.63286506
H        4.67262173       5.49984766      -8.39360980
H        5.90444925       6.30046210      -7.48990419
H        3.24231519       7.91425922      -5.45680070
H        8.21163237       6.30574873      -4.59638504
H        8.10426451       7.49023031      -2.40454030
H        4.14091845       8.78060028      -3.49269811
H        1.00569452       4.78665872      -3.83877778
H       -1.00464361       5.14969186      -5.20583064
H       -1.00569150       4.56713307      -7.61632164
H        0.99874146       3.53855601      -8.64511346
H        2.96247414       3.03539164      -7.30221580
C        5.99965107       8.96677796      -1.58041059
C        5.89830060       9.56269093      -0.53683414
Br       5.73442547      10.52623182       1.15054071
C       -0.88107563      -0.88107563      -0.88107563
C       -0.40686421      -1.34020891      -2.10372706
C       -1.22967106      -2.13643588      -2.91150665
C       -2.53083264      -2.50488600      -2.51349714
C       -2.95586489      -2.06709960      -1.24877781
C       -2.15271270      -1.23949857      -0.45107388
C       -3.31499157      -3.40062393      -3.39801101
N       -2.79342466      -3.98042973      -4.47245635
N       -3.59875649      -5.01520034      -4.84812251
C       -4.64996846      -5.02206153      -4.05901131
S       -5.72659947      -6.37176921      -3.94513235
C       -7.25758958      -5.99685553      -4.82153555
C       -7.60773239      -4.55757582      -5.11338807
O       -8.42443225      -3.95437325      -4.40765431
N       -7.11071830      -3.88364702      -6.18570010
C       -6.17641728      -4.30330411      -7.13090493
N       -5.74448401      -5.57337149      -7.13202037
C       -4.71131529      -5.89587626      -7.93971276
C       -4.11707444      -5.00577954      -8.80798439
C       -4.63392881      -3.72061127      -8.84783857
C       -5.68105164      -3.35311566      -8.00945434
N       -4.61191062      -3.90854864      -3.22874701
C       -5.68147370      -3.34194598      -2.48403278
C       -5.88454952      -1.95365814      -2.53186694
C       -6.97241159      -1.38514122      -1.86584150
C       -7.87078156      -2.19567420      -1.17436027
C       -7.67017301      -3.57175781      -1.12231743
C       -6.56979307      -4.14367492      -1.75964024
H        0.59795596      -1.09582960      -2.43768236
H       -0.82660669      -2.49599567      -3.85955986
H       -3.91046360      -2.36367874      -0.82928523
H       -2.52917379      -0.89855169       0.51102477
H       -8.04973331      -6.36258045      -4.15376543
H       -7.36621276      -6.61078470      -5.71781807
H       -7.44338123      -2.93023673      -6.23975715
H       -4.35266350      -6.91720828      -7.84389436
H       -3.27367501      -5.30970610      -9.41565401
H       -6.06057410      -2.33819762      -8.01544512
H       -5.22898320      -1.29884889      -3.10329893
H       -7.13454868      -0.31083738      -1.90549283
H       -8.73624361      -1.75742250      -0.68409709
H       -8.37881269      -4.20666334      -0.59693489
H       -6.43358358      -5.21465518      -1.65184282
C       -4.05944224      -2.74727197      -9.74012541
C       -3.57830974      -1.93210031     -10.48741563
Br      -2.80035917      -0.61403669     -11.69572072
C       -0.88107563       0.88107563       0.88107563
C       -0.80643362       0.77957069       2.26479586
C       -1.63059080       1.58287539       3.06414740
C       -2.53113146       2.51250684       2.50557747
C       -2.54048653       2.62532434       1.10593143
C       -1.74594369       1.79908940       0.29825206
C       -3.32387137       3.36858374       3.42117140
N       -3.11846428       3.39528863       4.73255784
N       -3.69828567       4.51828695       5.24550671
C       -4.32471491       5.13688798       4.26943841
S       -4.87331205       6.77289127       4.39729772
C       -6.66281793       6.79258396       4.62057876
C       -7.46834987       5.57529592       4.23505049
O       -8.08204866       5.54229920       3.16211194
N       -7.61852324       4.50285575       5.05868644
C       -7.04133717       4.26459652       6.30469264
N       -6.32062346       5.22271827       6.90653413
C       -5.62933772       4.89742478       8.02014182
C       -5.67319943       3.65105113       8.60658780
C       -6.48873154       2.70109977       8.01254734
C       -7.19263796       3.00012036       6.85086331
N       -4.27087773       4.35891576       3.11941277
C       -5.08359640       4.46537317       1.95848288
C       -5.65212594       3.30210900       1.41583966
C       -6.51162671       3.39286336       0.31890424
C       -6.82563599       4.63792904      -0.22274900
C       -6.26093794       5.79246361       0.31084670
C       -5.37848257       5.70759351       1.38703215
H       -0.11043973       0.09008862       2.73502765
H       -1.54048833       1.49378591       4.14788797
H       -3.14541692       3.36461802       0.59339265
H       -1.80217366       1.89822332      -0.78369627
H       -7.01065873       7.59721522       3.95820525
H       -6.93767937       7.13795986       5.61917631
H       -8.18798196       3.77218140       4.65321174
H       -5.00279145       5.68939749       8.42157721
H       -5.07828040       3.43526709       9.48548763
H       -7.80159350       2.24577952       6.36684382
H       -5.46544518       2.31967381       1.84601203
H       -6.95699612       2.49389461      -0.10001184
H       -7.52081469       4.71197779      -1.05502928
H       -6.51748750       6.76528885      -0.10036543
H       -4.93088431       6.63172547       1.73747181
C       -6.58147080       1.38222807       8.58314076
C       -6.65913992       0.27767301       9.06101275
Br      -6.78472433      -1.50829909       9.83369134
C        0.88107563      -0.88107563       0.88107563
C        2.24409647      -0.97749056       0.62921315
C        3.04134119      -1.80093993       1.43533248
C        2.50373675      -2.53010711       2.51537191
C        1.13303327      -2.36618660       2.77252242
C        0.32185547      -1.57340244       1.94802725
C        3.42515656      -3.33047908       3.35799086
N        4.74502174      -3.27611341       3.22517560
N        5.32145519      -3.79209590       4.34852824
C        4.36382268      -4.23442071       5.13279790
S        4.62223602      -4.62211503       6.79914998
C        4.66019850      -6.41375483       7.00202733
C        4.05562951      -7.29085250       5.93221427
O        2.92842284      -7.77674732       6.08128965
N        4.73005986      -7.64506073       4.80494484
C        5.99317258      -7.24323524       4.37421850
N        6.77277529      -6.50167047       5.17543011
C        7.90683344      -5.98083732       4.65923356
C        8.33785034      -6.22061862       3.37236940
C        7.55710042      -7.05591350       2.58936473
C        6.37121048      -7.58638204       3.08602911
N        3.14346754      -4.12891310       4.47682563
C        1.92485986      -4.78686388       4.79572870
C        1.19579356      -5.40610782       3.76817321
C        0.03376245      -6.11928297       4.07034889
C       -0.39012935      -6.23835765       5.39258774
C        0.32859542      -5.62275692       6.41289591
C        1.47317770      -4.88390185       6.11602868
H        2.70100554      -0.41539541      -0.18084495
H        4.11103259      -1.84618333       1.22494630
H        0.64948449      -2.82828871       3.62565438
H       -0.74140650      -1.49386431       2.16424291
H        4.06272570      -6.59782957       7.90552393
H        5.65819864      -6.76484293       7.27177397
H        4.18632753      -8.23635432       4.19069326
H        8.45954689      -5.32634552       5.32787374
H        9.24271262      -5.75659133       2.99973117
H        5.74306944      -8.21007774       2.46106966
H        1.52669905      -5.37282555       2.73160642
H       -0.52984743      -6.60382237       3.27690395
H       -1.27564871      -6.82145858       5.63195333
H        0.00809344      -5.72824557       7.44607192
H        1.97227142      -4.38665904       6.94115113
C        7.95904032      -7.34964394       1.23815536
C        8.29566499      -7.59564318       0.10651752
Br       8.83995860      -7.99340314      -1.72324516
