177
Properties=species:S:1:pos:R:3 pbc="F F F"
C        0.00000000       0.00000000       0.00000000
C        0.88107563       0.88107563      -0.88107563
C        2.03477589       1.45485807      -0.36116623
C        2.82867890       2.27415844      -1.17477626
C        2.50121959       2.52530060      -2.52269559
C        1.35785683       1.88572752      -3.02815795
C        0.53822111       1.09459376      -2.21047028
C        3.42625377       3.35366303      -3.33370971
N        4.61264197       3.74733489      -2.88633389
N        5.37420918       4.14044517      -3.94742498
C        4.63448882       4.06518133      -5.03137114
S        5.30299072       4.11397848      -6.62653183
C        4.98317036       5.72809585      -7.36471444
C        3.88726034       6.59633028      -6.79510566
O        2.78261205       6.65642629      -7.34742146
N        4.07304249       7.39648670      -5.71053624
C        5.19512570       7.52203775      -4.89346288
N        6.33656409       6.89602329      -5.21728849
C        7.34087645       6.89159650      -4.31443136
C        7.27934680       7.54753488      -3.10395668
C        6.12066655       8.25524007      -2.82647202
Br       5.96179748       9.18934668      -1.19064314
C        5.06027459       8.25688974      -3.72645730
N        3.33038432       3.73955032      -4.67927162
C        2.15452446       3.88983877      -5.46308922
C        1.01739052       4.47186687      -4.88081721
C       -0.12449948       4.69459787      -5.65329593
C       -0.12911380       4.36303697      -7.00689287
C        0.99538180       3.78282113      -7.58604532
C        2.12886056       3.52975064      -6.81449703
H        2.33336221       1.26928884       0.66709505
H        3.73721861       2.69941964      -0.74552397
H        1.07155290       1.96084608      -4.07102860
H       -0.35457073       0.63840639      -2.63286506
H        4.67262173       5.49984766      -8.39360980
H        5.90444925       6.30046210      -7.48990419
H        3.24231519       7.91425922      -5.45680070
H        8.21163237       6.30574873      -4.59638504
H        8.10426451       7.49023031      -2.40454030
H        4.14091845       8.78060028      -3.49269811
H        1.00569452       4.78665872      -3.83877778
H       -1.00464361       5.14969186      -5.20583064
H       -1.00569150       4.56713307      -7.61632164
H        0.99874146       3.53855601      -8.64511346
H        2.96247414       3.03539164      -7.30221580
C       -0.88107563      -0.88107563      -0.88107563
C       -0.88300314      -2.25970834      -0.70808869
C       -1.68464883      -3.06055562      -1.53240914
C       -2.51078434      -2.50692939      -2.53150205
C       -2.52330545      -1.10707299      -2.64136386
C       -1.69628912      -0.30155127      -1.84544476
C       -3.37526574      -3.41775660      -3.32060417
N       -3.50832328      -4.70665440      -3.03133307
N       -4.62402801      -5.18399752      -3.65405380
C       -5.12914976      -4.21598926      -4.38590227
S       -6.73023122      -4.27391826      -5.03935156
C       -6.64730709      -4.62160935      -6.80706421
C       -5.35516857      -4.37545681      -7.54807090
O       -5.20573928      -3.35322285      -8.22749768
N       -4.33618887      -5.27677491      -7.56710165
C       -4.22548392      -6.49178665      -6.89335576
N       -5.26938986      -6.97638135      -6.20410466
C       -5.07022703      -8.05729087      -5.41938642
C       -3.86836109      -8.72650686      -5.33597042
C       -2.82686930      -8.25585281      -6.11965653
Br      -1.14861522      -9.12452531      -6.06864677
C       -2.99564270      -7.12972468      -6.91825425
N       -4.27693507      -3.11901031      -4.35326089
C       -4.24690923      -2.01407496      -5.24646825
C       -3.01308383      -1.59118580      -5.76580498
C       -2.96886831      -0.55429609      -6.70022992
C       -4.14893928       0.04490097      -7.13677773
C       -5.37318190      -0.36983196      -6.62123439
C       -5.42330211      -1.38405420      -5.66575192
H       -0.27610235      -2.72402051       0.06456687
H       -1.67870611      -4.13870435      -1.36475175
H       -3.18280856      -0.59090823      -3.32971079
H       -1.71459597       0.77787734      -1.97998208
H       -7.37822785      -3.93378282      -7.25406853
H       -7.04361840      -5.61213740      -7.03905974
H       -3.54257241      -4.96186715      -8.10893556
H       -5.92834244      -8.36008073      -4.82534298
H       -3.75519351      -9.57339762      -4.67044399
H       -2.17029531      -6.74100472      -7.50291681
H       -2.07808999      -2.07107840      -5.48196263
H       -2.01500347      -0.22834947      -7.10752596
H       -4.11771084       0.82891652      -7.88896888
H       -6.29533366       0.08560484      -6.97268211
H       -6.39750846      -1.64002475      -5.26254838
C       -0.88107563       0.88107563       0.88107563
C       -1.96950516       0.33287292       1.54842210
C       -2.78059354       1.15393240       2.34308765
C       -2.51676823       2.52943555       2.50301199
C       -1.37799671       3.03688811       1.85685748
C       -0.58303905       2.22989779       1.03034832
C       -3.38681728       3.31661493       3.41019430
N       -4.30914471       2.75477507       4.18239097
N       -4.66487763       3.63994667       5.15725503
C       -4.02505173       4.76719470       4.93879486
S       -3.89792380       6.01746885       6.12810838
C       -5.00505939       7.37420282       5.69671845
C       -5.50496210       7.49634077       4.27739342
O       -4.98708564       8.30300816       3.49636600
N       -6.57354777       6.79444561       3.81207205
C       -7.33302147       5.82018968       4.45741517
N       -7.13042642       5.56140887       5.75804058
C       -7.75278519       4.49298397       6.30113515
C       -8.63274718       3.69062345       5.60746773
C       -8.88856877       4.02629159       4.28751830
Br     -10.09087630       2.98050028       3.27041072
C       -8.24303052       5.10610606       3.69448505
N       -3.33150635       4.67975800       3.73794192
C       -2.80418664       5.74470227       2.95856353
C       -3.03863834       5.75697991       1.57445635
C       -2.59141588       6.83058044       0.80139799
C       -1.93462639       7.90147499       1.40471465
C       -1.69776742       7.89051273       2.77596809
C       -2.11469415       6.80835623       3.55005785
H       -2.19477811      -0.72716795       1.46794583
H       -3.61952128       0.69450499       2.86813595
H       -1.05587452       4.06423239       1.98332068
H        0.27536224       2.66720005       0.52486291
H       -4.40917238       8.27941080       5.87749602
H       -5.83069597       7.45793390       6.40618566
H       -6.78078353       6.99064229       2.84194929
H       -7.49315988       4.28494436       7.33566190
H       -9.08521488       2.82975888       6.08406135
H       -8.41620930       5.34593468       2.65207286
H       -3.59105632       4.95947043       1.08060427
H       -2.77609215       6.84468938      -0.26990263
H       -1.61619856       8.75284842       0.80871623
H       -1.19995537       8.73233489       3.25012067
H       -1.86670913       6.82722781       4.60614464
C        0.88107563      -0.88107563       0.88107563
C        0.30538954      -1.70512254       1.84028810
C        1.12466171      -2.49901747       2.65393442
C        2.52789661      -2.50196410       2.51935506
C        3.07010367      -1.69752125       1.50411739
C        2.25998191      -0.87244001       0.71086324
C        3.31970201      -3.41651417       3.37741033
N        2.75679409      -4.32856713       4.16094953
N        3.70057011      -5.24805846       4.51345075
C        4.85406616      -4.86073122       4.01624392
S        6.22650961      -5.90883850       3.90815292
C        7.42243994      -5.46908727       5.18445344
C        7.35066425      -4.10359399       5.82443805
O        8.11740162      -3.20160169       5.46745650
N        6.50802312      -3.81824214       6.85380017
C        5.53882439      -4.62636465       7.44543728
N        5.43533782      -5.91765758       7.09688047
C        4.37514314      -6.61918877       7.55257240
C        3.42709283      -6.09765503       8.40609051
C        3.59976861      -4.78553497       8.81707507
Br       2.34729138      -3.99958072       9.99491521
C        4.66826302      -4.03110087       8.34425774
N        4.70852899      -3.60827541       3.43240186
C        5.73208992      -2.68285929       3.09250324
C        5.57989811      -1.33516016       3.45501633
C        6.60521281      -0.42344123       3.19474028
C        7.78908166      -0.85343341       2.59830097
C        7.94147734      -2.18803292       2.23473799
C        6.91062091      -3.09845230       2.46403501
H       -0.77366724      -1.74746769       1.96175554
H        0.64550784      -3.14818213       3.38847225
H        4.13054629      -1.69379607       1.27908522
H        2.72105495      -0.24270710      -0.04706133
H        8.39305065      -5.50235653       4.67067201
H        7.50140380      -6.24886447       5.94454727
H        6.58312320      -2.86056185       7.16969006
H        4.29983044      -7.63635984       7.17757587
H        2.58144307      -6.69648510       8.72110695
H        4.78230609      -2.99425716       8.63765359
H        4.68776588      -0.97733328       3.96603186
H        6.49167818       0.61977854       3.47897926
H        8.60054067      -0.15103987       2.42618266
H        8.87037263      -2.52784046       1.78419784
H        7.06115381      -4.11701290       2.12191488
