170
Properties=species:S:1:pos:R:3 pbc="F F F"
C        1.79150692       1.79150692      -1.79150692
C        3.17757481       1.72579989      -1.66689034
C        3.99907552       2.53363850      -2.46820992
C        5.39688077       2.48203564      -2.35229216
C        6.20651137       3.29577919      -3.14290664
C        5.62641698       4.17316401      -4.05466570
C        4.23169279       4.23286754      -4.18521975
C        3.40880951       3.41720883      -3.40496016
C        2.01692672       3.46116469      -3.52186423
C        1.20609028       2.65119342      -2.71449095
C        1.38616496       4.35240544      -4.52326626
O        0.15832610       4.35152524      -4.59024364
N        2.24382073       5.10808810      -5.33695978
C        3.63074256       5.18923007      -5.14118706
O        4.37520554       6.01825151      -5.66277441
C        1.65353257       5.99985707      -6.30700713
C        0.66736007       6.89401541      -5.86136013
C        0.10642734       7.82242856      -6.72760891
C        0.51871484       7.87025124      -8.05867184
Br      -0.32168306       9.20154026      -9.13858645
C        1.49001510       6.96991447      -8.56549931
C        1.91120018       6.97365631      -9.91981523
C        2.83715617       6.05601034     -10.41284052
C        3.36273026       5.09706326      -9.56709257
C        2.97303083       5.07125574      -8.22762348
C        2.05906488       6.00900358      -7.67979202
H        3.62051377       1.04593862      -0.94142720
H        5.86916453       1.80734438      -1.63975840
H        7.28892787       3.25118461      -3.04357048
H        6.26510595       4.81401904      -4.66142954
H        0.12214106       2.69139000      -2.81238429
H        0.34390059       6.89487820      -4.82277565
H       -0.64731348       8.50962357      -6.35156681
H        1.51377064       7.69908134     -10.62603249
H        3.13557728       6.09007297     -11.45695578
H        4.07687098       4.36824399      -9.94103318
H        3.40358522       4.28905929      -7.60799239
C       -1.79150692      -1.79150692      -1.79150692
C       -3.17195541      -1.60340759      -1.79490204
C       -3.99388481      -2.40957021      -2.59746892
C       -5.38652399      -2.23529109      -2.60939348
C       -6.19805141      -3.04733400      -3.39981179
C       -5.62559815      -4.04541536      -4.18323318
C       -4.23554822      -4.22877481      -4.18545704
C       -3.40985849      -3.41681050      -3.40430952
C       -2.02234774      -3.58310577      -3.39450213
C       -1.21130772      -2.77343268      -2.58703424
C       -1.39356928      -4.60691324      -4.26135415
O       -0.16902062      -4.71106028      -4.22001407
N       -2.24581251      -5.35946102      -5.08359508
C       -3.64575988      -5.31083861      -5.00456120
O       -4.41564914      -6.11966807      -5.52091425
C       -1.65979636      -6.37776950      -5.92283092
C       -0.79523707      -7.30599389      -5.32150465
C       -0.24996765      -8.34919208      -6.05730508
C       -0.55604272      -8.48036705      -7.41122815
Br       0.24853858      -9.96490378      -8.30207846
C       -1.40035341      -7.55258605      -8.07248942
C       -1.70951095      -7.64132046      -9.45384031
C       -2.50839458      -6.69880200     -10.09881045
C       -3.01421933      -5.62994467      -9.38272209
C       -2.73318443      -5.51806500      -8.02066062
C       -1.95239683      -6.47475689      -7.32070677
H       -3.61055166      -0.82888470      -1.16844323
H       -5.85366580      -1.46466830      -1.99793321
H       -7.27683304      -2.90693457      -3.39991535
H       -6.26705509      -4.68344914      -4.79005030
H       -0.13073429      -2.90946249      -2.58571857
H       -0.55801950      -7.24168931      -4.26184562
H        0.40763013      -9.05928327      -5.56222377
H       -1.32165718      -8.45571564     -10.06151167
H       -2.72337563      -6.80029005     -11.15894036
H       -3.62901153      -4.88153929      -9.87559734
H       -3.14194602      -4.65223937      -7.50645150
C       -1.79150692       1.79150692       1.79150692
C       -1.53854287       3.15915813       1.87256404
C       -2.33870669       3.97990403       2.68231322
C       -2.09469873       5.35878628       2.77772355
C       -2.88588019       6.16619791       3.59311910
C       -3.92670723       5.60217802       4.32536144
C       -4.18573997       4.22705781       4.23698230
C       -3.40581262       3.40768870       3.41747718
C       -3.64952708       2.03545211       3.31497644
C       -2.84220792       1.22487650       2.50469023
C       -4.78506268       1.42871669       4.04805730
O       -4.96035438       0.21820428       3.92153631
N       -5.58919850       2.29113782       4.80853230
C       -5.27994016       3.63966387       5.04155566
O       -5.81171685       4.35489291       5.88962171
C       -6.69011213       1.72141897       5.54886567
C       -6.42306219       0.62104195       6.37863148
C       -7.42205023       0.06705023       7.16736434
C       -8.70956045       0.60126068       7.13681679
Br      -9.98443168      -0.24468589       8.27869786
C       -9.03797451       1.69340827       6.29404610
C      -10.34344747       2.24261826       6.21860599
C      -10.66051718       3.29000822       5.35548164
C       -9.68201270       3.81365884       4.53121455
C       -8.38631104       3.29906565       4.58653336
C       -8.01580910       2.25643368       5.47561769
H       -0.71381638       3.58784963       1.30621358
H       -1.28068809       5.81736802       2.21821120
H       -2.68698671       7.23343915       3.66325710
H       -4.53396093       6.23756231       4.96903128
H       -3.03937846       0.15636563       2.43017125
H       -5.42233907       0.19907675       6.44013861
H       -7.18318948      -0.77776792       7.80845535
H      -11.14949868       1.85311829       6.83626751
H      -11.67235015       3.68459279       5.32566310
H       -9.91824727       4.62271236       3.84518852
H       -7.65761521       3.73488182       3.90813987
C        1.79150692      -1.79150692       1.79150692
C        1.25064978      -2.92496063       2.39465462
C        2.04898153      -3.74140700       3.21053541
C        1.51835888      -4.88454075       3.82830894
C        2.31378190      -5.68443122       4.64698409
C        3.64727545      -5.34682763       4.86014361
C        4.19298711      -4.21049031       4.24630266
C        3.40932968      -3.40462055       3.41702828
C        3.93561734      -2.26917010       2.79516820
C        3.12809284      -1.45963448       1.98404732
C        5.36585435      -1.92496642       2.97101590
O        5.78179964      -0.91873337       2.39956196
N        6.14062877      -2.79277235       3.75546749
C        5.60536023      -3.85197871       4.50382075
O        6.19962162      -4.47163120       5.38497865
C        7.53277287      -2.46850928       3.95911462
C        7.84685533      -1.17393868       4.40194160
C        9.15921649      -0.81713241       4.68011592
C       10.18356128      -1.74858918       4.51548746
Br      11.93901411      -1.13369853       4.94573102
C        9.92271292      -3.05987430       4.04284166
C       10.94429624      -4.02219614       3.83817934
C       10.67731455      -5.29407865       3.33461383
C        9.37891725      -5.63918358       3.00878526
C        8.35073779      -4.71657179       3.20460047
C        8.57696038      -3.42432251       3.74657759
H        0.20327336      -3.17250967       2.23209656
H        0.47561897      -5.16115096       3.67949738
H        1.89272242      -6.56669965       5.12426089
H        4.25998513      -5.97055309       5.51001630
H        3.54640949      -0.57671330       1.50279256
H        7.06524502      -0.43447633       4.56183307
H        9.37105958       0.18932988       5.03214720
H       11.98253951      -3.79107683       4.06526814
H       11.48660644      -6.00465143       3.19134816
H        9.15822220      -6.62346922       2.60445673
H        7.35040422      -5.03115329       2.91907938
C       -0.00445707       0.01189536      -1.78238275
H       -0.66409135       0.67374010      -2.43557963
H        0.65740317      -0.63156657      -2.45157240
C       -0.90989263      -0.90692880      -0.91072765
C        0.90977584       0.90977584      -0.90977584
C       -0.00465871       1.77757030       0.00794375
H       -0.66225468       2.44313916      -0.64384735
H        0.64322798       2.43503045       0.67728295
C       -1.78241447       0.00034974      -0.00472694
H       -2.45427497      -0.65498947       0.64260836
H       -2.43311707       0.67328779      -0.65473579
C       -0.91132561       0.90220522       0.91563759
C       -0.01476271      -0.02253852       1.78660255
H       -0.67934791      -0.69751639       2.42135241
H        0.63392994       0.61504881       2.47327442
C        0.01484550      -1.77751727      -0.01636693
H        0.67870853      -2.42144646      -0.68295456
H       -0.62264859      -2.45592969       0.64226336
C        1.78714474       0.01002794       0.00389507
H        2.44202412       0.67113390       0.66197326
H        2.45385902      -0.65136977      -0.64189061
C        0.91606151      -0.90478549       0.90901405
