177
Properties=species:S:1:pos:R:3 pbc="F F F"
C        0.00000000       0.00000000       0.00000000
C       -1.81834413       7.03433970      -3.83667487
O       -1.75347092       6.08460045      -4.89555713
C       -0.52907346       5.51891382      -5.12414735
C       -0.34737145       5.00616067      -6.40669275
C        0.86119692       4.41256683      -6.76453781
C        1.88631451       4.31596040      -5.82420641
O        3.07047466       3.72673324      -6.17873808
C        1.72952193       4.79117982      -4.51262941
C        0.49756799       5.39957228      -4.18308326
C        2.88215553       4.66713311      -3.51195405
H        3.76970376       5.14334254      -3.92691825
N        3.29090042       3.26722830      -3.34470599
C        2.45386514       2.48524463      -2.54824960
C        2.44588408       1.09558322      -2.70555002
C        1.65095786       0.29398638      -1.88518825
C        0.88184418       0.88184418      -0.88184418
C        0.92546748       2.25856704      -0.66731897
C        1.73227241       3.05118670      -1.49068045
C        1.88004780       4.50835912      -1.24650769
O        1.37145662       5.03588928      -0.25803259
N        2.62461329       5.22311903      -2.18291280
N        2.67686456       6.64969747      -1.98167954
C        3.30029747       7.55008546      -2.83174913
O        3.71257072       7.27186468      -3.95405148
C        3.44509718       8.89220890      -2.30742375
C        4.17449954       9.95467037      -2.81056522
C        3.96359947      11.04478550      -1.93698164
C        3.11264685      10.58807210      -0.95733408
Br       2.46056182      11.62342464       0.45073896
O        2.80224418       9.27613972      -1.16204693
H       -2.79976695       7.51668583      -3.88223291
H       -1.05759988       7.81361721      -3.95603404
H       -1.73489902       6.54677983      -2.86051076
H       -1.15150675       5.08193762      -7.13446833
H        0.97985122       4.02931436      -7.77296332
H        3.08353913       3.62366802      -7.14659796
H        0.33887760       5.77505299      -3.17816075
H        3.47055209       2.86182109      -4.26333089
H        3.05794118       0.62898763      -3.47401456
H        1.64594283      -0.78284638      -2.03479992
H        0.35154801       2.71355111       0.13547246
H        2.40068993       6.94830361      -1.04506532
H        4.78197189       9.92399718      -3.70631158
H        4.37799345      12.04110503      -2.02315454
C       -4.15977794       1.92587770      -6.81877020
O       -5.17941695       1.78733264      -5.83460235
C       -5.34247418       0.53567384      -5.30718737
C       -6.59759294       0.28783806      -4.75572709
C       -6.88925834      -0.95384668      -4.19519653
C       -5.90966897      -1.94593305      -4.17087930
O       -6.19906754      -3.16296143      -3.61391701
C       -4.62325850      -1.72324021      -4.68683245
C       -4.36124888      -0.45872568      -5.26024897
C       -3.57778934      -2.84140461      -4.64204874
H       -3.97802325      -3.72611070      -5.13583059
N       -3.34374916      -3.29376297      -3.26532259
C       -2.54929473      -2.45626117      -2.48180346
C       -2.65475529      -2.50421066      -1.08805138
C       -1.83417857      -1.70857442      -0.28737948
C       -0.88184418      -0.88184418      -0.88184418
C       -0.71746904      -0.86781703      -2.26606740
C       -1.54027828      -1.67575132      -3.05810996
C       -1.34555036      -1.76173129      -4.52763296
O       -0.39642944      -1.19790054      -5.07104850
N       -2.28058356      -2.51453691      -5.23552465
N       -2.13103428      -2.50782733      -6.66937996
C       -2.99114513      -3.12975352      -7.56123341
O       -4.08669531      -3.59341773      -7.25837385
C       -2.51245112      -3.20643885      -8.92583987
C       -3.02833990      -3.91539464      -9.99600058
C       -2.20425275      -3.63288678     -11.10822708
C       -1.23950665      -2.76292933     -10.65561703
Br       0.10450819      -2.02183531     -11.71592038
O       -1.40611014      -2.50783675      -9.32648394
H       -4.25863640       2.92164629      -7.26216167
H       -4.28069351       1.18976190      -7.62111976
H       -3.16370949       1.86145522      -6.37013730
H       -7.35617686       1.06643045      -4.77515280
H       -7.87773484      -1.12381556      -3.78057850
H       -7.16130278      -3.21587739      -3.47662494
H       -3.37742207      -0.24918538      -5.66548388
H       -4.23952176      -3.52209006      -2.83409225
H       -3.38271251      -3.16095440      -0.61727646
H       -1.94354067      -1.74793337       0.79357768
H        0.04657599      -0.24829529      -2.72790736
H       -1.21678258      -2.18628128      -6.99099499
H       -3.89985790      -4.55661678      -9.95580598
H       -2.31260754      -4.01406318     -12.11558229
C       -6.75658032       4.24812506      -1.95203493
O       -5.76365330       5.25625094      -1.79321757
C       -5.24738486       5.40131887      -0.53471602
C       -4.68586131       6.64820212      -0.26858145
C       -4.13508388       6.92162857       0.98158910
C       -4.13072920       5.93190005       1.96385207
O       -3.58329164       6.20334455       3.18930978
C       -4.65732023       4.65311382       1.72289711
C       -5.22045134       4.40970114       0.45007105
C       -4.63444746       3.59603419       2.83076104
H       -5.13314890       3.99234037       3.71447528
N       -3.26482205       3.34345468       3.29455799
C       -2.48086382       2.54954507       2.45695047
C       -1.08668025       2.64033141       2.52000566
C       -0.28626007       1.81970602       1.72416639
C       -0.88184418       0.88184418       0.88184418
C       -2.26743839       0.73171069       0.85220440
C       -3.05933275       1.55435672       1.66045009
C       -4.53154120       1.37373417       1.72963924
O       -5.07872384       0.43591821       1.15073643
N       -5.23760213       2.30829172       2.48475127
N       -6.67274846       2.17341384       2.46207926
C       -7.56217530       3.03624661       3.08371016
O       -7.25303004       4.12393317       3.56152367
C       -8.93224345       2.57071323       3.14177316
C      -10.00431168       3.09029681       3.84512663
C      -11.12184993       2.28045563       3.54306105
C      -10.67015181       1.31996547       2.66793574
Br     -11.73634306      -0.00565960       1.90256404
O       -9.33688154       1.47559812       2.42795117
H       -7.18879940       4.36151380      -2.95116142
H       -7.56511929       4.36977756      -1.22284547
H       -6.31868108       3.24694530      -1.89323482
H       -4.68972305       7.41474778      -1.03957163
H       -3.71228189       7.90407341       1.16577360
H       -3.43686056       7.16355136       3.25339319
H       -5.63342173       3.43220860       0.22646101
H       -2.82693691       4.23244833       3.53631883
H       -0.61530363       3.35680960       3.18883013
H        0.79528733       1.91766249       1.77552121
H       -2.73062313      -0.02131742       0.22032095
H       -7.00026721       1.26576661       2.12802503
H       -9.96186741       3.95485825       4.49555499
H      -12.13188879       2.39520932       3.91515490
C       -2.15876204      -5.60240894       5.60902354
O       -1.67993535      -4.51413109       6.39249093
C       -0.35298310      -4.21077369       6.25619712
C        0.20805866      -3.52569895       7.33172436
C        1.55453394      -3.16822636       7.31554126
C        2.33763244      -3.48323834       6.20561053
O        3.65921260      -3.12497792       6.19175546
C        1.80069267      -4.14346962       5.08916888
C        0.43559507      -4.50453432       5.14009414
C        2.69697351      -4.47248579       3.89178339
H        3.55243140      -5.05390131       4.23363184
N        3.30754838      -3.25835370       3.33693264
C        2.46963194      -2.46646784       2.55125958
C        2.75403874      -1.10716411       2.38581447
C        1.95453441      -0.31054879       1.56504928
C        0.88184418      -0.88184418       0.88184418
C        0.62082956      -2.24746366       0.98306026
C        1.43402916      -3.03765629       1.80245411
C        1.25098552      -4.50942859       1.87450050
O        0.44186352      -5.07979486       1.14372010
N        2.04484581      -5.19014356       2.79565576
N        1.78592562      -6.60294423       2.91937171
C        2.41006088      -7.44937080       3.82270039
O        3.11171174      -7.07068298       4.75609216
C        2.18141119      -8.86211247       3.60120617
C        2.79776851      -9.95161405       4.19035257
C        2.19577899     -11.10659582       3.64299179
C        1.24278215     -10.65624759       2.75902328
Br       0.10708460     -11.75665341       1.76950949
O        1.23457910      -9.29346307       2.71238866
H       -3.17548056      -5.83104436       5.94358797
H       -1.54787682      -6.49908094       5.76084725
H       -2.21201166      -5.33527497       4.54912825
H       -0.40847741      -3.28040485       8.19297177
H        1.96884769      -2.64307815       8.17020306
H        3.91168252      -2.85105127       7.09107131
H       -0.01476024      -5.01246607       4.29438551
H        3.76375410      -2.74250379       4.08944618
H        3.60060812      -0.65922282       2.90111242
H        2.18236536       0.74760232       1.46313333
H       -0.19497853      -2.69933888       0.42526631
H        1.25302232      -6.99797138       2.14306515
H        3.58867383      -9.89590096       4.92770586
H        2.42798077     -12.13779241       3.87647983
