186
Properties=species:S:1:pos:R:3 pbc="F F F"
Cl       6.63017170      -0.00471882      -8.79835780
C        5.83938493       1.19870411      -7.85784747
C        4.45946035       1.35441935      -7.94989324
C        3.81527112       2.34387480      -7.19887084
C        4.54369167       3.19452447      -6.34846570
C        5.93875790       3.00753461      -6.26734190
C        6.58233772       2.01782684      -7.01459669
C        3.91707189       4.35432413      -5.56915066
H        4.40387969       5.25886778      -5.94962079
N        4.24842036       4.26815874      -4.14390887
C        3.42741478       3.39533101      -3.40382261
C        3.89431606       2.91545342      -2.17602876
C        3.08585061       2.10364521      -1.37678619
C        1.79167990       1.79167990      -1.79167990
C        1.29140368       2.29358668      -2.99082384
C        2.11012842       3.10443026      -3.78426082
C        1.58146317       3.72872230      -5.01713028
O        0.41905550       3.55393236      -5.37299379
N        2.47729337       4.52374304      -5.70979649
N        2.03604028       5.07413560      -6.94034898
C        2.30829395       6.39345930      -7.25634563
O        3.01667591       7.11511713      -6.55466367
C        1.73835498       6.82761403      -8.51187932
C        1.88437859       8.01295281      -9.20800561
C        1.14808991       7.87327281     -10.40908644
C        0.58829426       6.61703344     -10.37061773
O        0.93930402       5.97323818      -9.22509759
H        3.87740606       0.71565342      -8.60953358
H        2.73745430       2.43760566      -7.30555599
H        6.53373830       3.64598211      -5.61512699
H        7.65959519       1.89894964      -6.93727582
H        4.16024658       5.20423076      -3.74693665
H        4.90167829       3.16017562      -1.84590156
H        3.47433702       1.72625534      -0.43394772
H        0.27226360       2.07665298      -3.30092420
H        1.25388040       4.60354646      -7.39491761
H        2.47310277       8.86198343      -8.88525946
H        1.04626858       8.59857579     -11.20458201
C       -0.24457744       6.04917987     -11.39894990
C       -0.94210748       5.57360251     -12.26017810
Br      -2.06995456       4.80463413     -13.65271126
Cl      -0.38912954      -9.54194655      -5.49273458
C       -1.54099376      -8.36997914      -4.98496362
C       -1.86829555      -8.25861748      -3.63685991
C       -2.81762023      -7.31773592      -3.22266061
C       -3.45616542      -6.47803897      -4.15247744
C       -3.09776345      -6.60583208      -5.51003887
C       -2.14776040      -7.54295425      -5.92404660
C       -4.56730634      -5.49167850      -3.78156185
H       -5.45106951      -5.82485339      -4.33644536
N       -4.25393360      -4.14325199      -4.26330237
C       -3.39269938      -3.40795878      -3.42591025
C       -2.70224780      -2.31805769      -3.96549276
C       -1.89172030      -1.51906081      -3.15550090
C       -1.79167990      -1.79167990      -1.79167990
C       -2.50391094      -2.84635971      -1.22554356
C       -3.31151332      -3.64112186      -2.04618432
C       -4.15200673      -4.71086296      -1.46444606
O       -4.16365835      -4.92684321      -0.25548009
N       -4.92158207      -5.41857180      -2.37067903
N       -5.67879009      -6.50633368      -1.86540109
C       -6.98733009      -6.69886203      -2.27190675
O       -7.52107623      -6.01798705      -3.14739344
C       -7.64855830      -7.80770835      -1.62158168
C       -8.89064062      -8.37324477      -1.84145162
C       -8.99939202      -9.47364333      -0.95741382
C       -7.82359487      -9.50856809      -0.24378246
O       -6.99636615      -8.50342914      -0.63784451
H       -1.39571768      -8.90521425      -2.90166112
H       -3.05044570      -7.26826464      -2.16190560
H       -3.56950073      -5.96830097      -6.25704570
H       -1.89416182      -7.62419818      -6.97746065
H       -5.13265525      -3.63107905      -4.34767969
H       -2.78102512      -2.09856671      -5.02816365
H       -1.34925748      -0.68714025      -3.59814236
H       -2.45119653      -3.04131531      -0.15732894
H       -5.36788698      -6.90475444      -0.97970305
H       -9.61421209      -8.03443224      -2.57170133
H       -9.83102343     -10.15792270      -0.86048024
C       -7.49929291     -10.47630674       0.77204731
C       -7.22769002     -11.28678787       1.62280475
Br      -6.78853111     -12.59726730       2.99840757
Cl      -2.49906490       2.48742339      10.43732238
C       -2.79220479       3.20278650       8.90094522
C       -1.74817131       3.80796029       8.20764135
C       -1.98695716       4.40582529       6.96523430
C       -3.27506394       4.41043146       6.40118644
C       -4.31143122       3.78133695       7.12086624
C       -4.07321405       3.18150410       8.36004311
C       -3.62526537       5.12336895       5.09191236
H       -4.36268818       5.88669408       5.36298600
N       -4.29152515       4.20975841       4.15920441
C       -3.41814668       3.38966408       3.41875764
C       -3.92532109       2.22339396       2.83708319
C       -3.11221937       1.41706874       2.03699391
C       -1.79167990       1.79167990       1.79167990
C       -1.27845279       2.97103925       2.32632217
C       -2.10102625       3.77035578       3.12743747
C       -1.61828526       5.07338197       3.63564852
O       -0.49227826       5.48485340       3.36884999
N       -2.52554293       5.78350550       4.40178447
N       -2.07453779       6.99916015       4.97682692
C       -2.87746323       8.12584385       4.95479180
O       -4.03584974       8.11161668       4.53899030
C       -2.25595579       9.30259835       5.51929420
C       -2.76949940      10.56017094       5.77566666
C       -1.73461017      11.30509109       6.39074790
C       -0.64887984      10.46317201       6.46389357
O       -0.95291991       9.24589807       5.93882181
H       -0.74643707       3.82647158       8.62968441
H       -1.14605870       4.87444158       6.46011566
H       -5.32093370       3.76237161       6.71154210
H       -4.89136604       2.70835765       8.89609696
H       -4.83293928       4.77458365       3.50389106
H       -4.95644915       1.92957291       3.02173342
H       -3.52085178       0.50500654       1.60868177
H       -0.25871135       3.28022094       2.11090849
H       -1.06574470       7.10750988       5.07908989
H       -3.77999093      10.88174270       5.55861203
H       -1.78087208      12.32680778       6.74174651
C        0.63106642      10.80852541       7.02609336
C        1.70302142      11.09775888       7.49693568
Br       3.43628198      11.56542493       8.25824788
Cl       4.30088351     -10.08987090       1.03305626
C        4.57982510      -8.55623165       1.75987976
C        5.19246849      -7.54346453       1.02783993
C        5.43624343      -6.30009541       1.62167791
C        5.07437744      -6.05421802       2.95808637
C        4.44630374      -7.09485826       3.67247240
C        4.19980507      -8.33563208       3.07932410
C        5.39234746      -4.75115926       3.69703997
H        6.04802656      -5.03799584       4.52634586
N        4.18313983      -4.18010475       4.29724337
C        3.39105797      -3.42398126       3.41152917
C        2.04981321      -3.19874446       3.73724057
C        1.24616135      -2.39683292       2.92328775
C        1.79167990      -1.79167990       1.79167990
C        3.13581195      -1.96816059       1.47184167
C        3.93125207      -2.77450811       2.29305931
C        5.38194848      -2.90988714       2.03548013
O        5.92193693      -2.32182842       1.10221630
N        6.06852419      -3.71857803       2.92373069
N        7.44510965      -3.94119928       2.66421592
C        8.36912983      -3.89581301       3.69315604
O        8.04702940      -3.76549939       4.87392794
C        9.73755179      -4.07658981       3.26370674
C       10.90362465      -4.20713260       3.99457976
C       11.94698471      -4.42145719       3.06200727
C       11.35899358      -4.39862193       1.81832991
O       10.01936425      -4.19050514       1.92777041
H        5.49121232      -7.71473149      -0.00335076
H        5.92387499      -5.53879132       1.01794963
H        4.14859860      -6.93760790       4.70864090
H        3.71910099      -9.12214925       3.65457041
H        4.47362420      -3.57317914       5.06461065
H        1.62102288      -3.66491625       4.62181634
H        0.20111972      -2.24883823       3.18458213
H        3.57016163      -1.47234904       0.60733011
H        7.75800502      -3.78859608       1.70574337
H       10.97518788      -4.17113505       5.07402272
H       12.99533887      -4.57921857       3.27486894
C       12.05348068      -4.58008428       0.56998738
C       12.63511363      -4.73205899      -0.47549949
Br      13.57556492      -4.97778926      -2.16596334
C       -0.00445707       0.01189536      -1.78238275
H       -0.66409135       0.67374010      -2.43557963
H        0.65740317      -0.63156657      -2.45157240
C       -0.90989263      -0.90692880      -0.91072765
C        0.90977584       0.90977584      -0.90977584
C       -0.00465871       1.77757030       0.00794375
H       -0.66225468       2.44313916      -0.64384735
H        0.64322798       2.43503045       0.67728295
C       -1.78241447       0.00034974      -0.00472694
H       -2.45427497      -0.65498947       0.64260836
H       -2.43311707       0.67328779      -0.65473579
C       -0.91132561       0.90220522       0.91563759
C       -0.01476271      -0.02253852       1.78660255
H       -0.67934791      -0.69751639       2.42135241
H        0.63392994       0.61504881       2.47327442
C        0.01484550      -1.77751727      -0.01636693
H        0.67870853      -2.42144646      -0.68295456
H       -0.62264859      -2.45592969       0.64226336
C        1.78714474       0.01002794       0.00389507
H        2.44202412       0.67113390       0.66197326
H        2.45385902      -0.65136977      -0.64189061
C        0.91606151      -0.90478549       0.90901405
