170
Properties=species:S:1:pos:R:3 pbc="F F F"
C        1.79208327       1.79208327      -1.79208327
C        1.23251342       2.46214850      -2.87753579
C        2.05007095       3.22963962      -3.71307314
C        3.43014904       3.33104684      -3.47152747
C        3.96153944       2.70803362      -2.33211267
C        3.15041180       1.91744872      -1.50969285
C        4.26383565       4.12173840      -4.44567040
O        3.66903151       4.94266159      -5.15119806
N        5.63665522       3.87472980      -4.54380330
C        6.17965675       2.59618247      -4.47260226
N        7.40496736       2.36586040      -3.97580349
C        7.70199000       0.93387329      -3.91931672
C        6.76153873       0.12735570      -4.80079636
S        5.34560331       1.20010430      -5.04861668
C        6.40898437       5.03899425      -4.60313813
O        6.12719103       6.05528303      -3.94981742
C        7.61996661       5.13633321      -5.50652219
C        8.37379952       6.32524586      -5.45507664
C        9.49768609       6.51348860      -6.26892761
C        9.89035819       5.50452983      -7.14195649
C        9.14898036       4.33130528      -7.23272782
C        8.00444926       4.16452773      -6.44093408
H        0.17204359       2.38225243      -3.09663520
H        1.61357421       3.73639804      -4.57100501
H        5.02228085       2.78919299      -2.09987385
H        3.59975244       1.39326168      -0.67091135
H        8.73779507       0.72826180      -4.21654597
H        7.62135451       0.57066070      -2.88555290
H        7.22050870      -0.09645990      -5.76874375
H        6.46805324      -0.81420532      -4.32660417
H        8.08092752       7.12154992      -4.77322681
H       10.05370892       7.44395010      -6.20366212
H        9.44697504       3.52972984      -7.90272973
H        7.44444085       3.24104756      -6.55131015
C       11.06413010       5.67790060      -7.95792346
C       12.04716406       5.82309862      -8.64129579
Br      13.63664685       6.05787153      -9.74625107
C       -1.79208327      -1.79208327      -1.79208327
C       -1.20620873      -2.61364605      -2.75234293
C       -2.01720510      -3.38336169      -3.59221691
C       -3.41664176      -3.33602196      -3.48005963
C       -3.98408498      -2.55829048      -2.45931026
C       -3.17600113      -1.76640610      -1.63514614
C       -4.23346332      -4.14097393      -4.45680721
O       -3.66170288      -5.07767698      -5.02351130
N       -5.56077268      -3.78254654      -4.71186910
C       -5.97900289      -2.45963468      -4.80980390
N       -7.21521732      -2.07222351      -4.45919041
C       -7.37319146      -0.62079658      -4.56119197
C       -6.28230104       0.00693539      -5.41432514
S       -4.96275699      -1.20788706      -5.42368024
C       -6.43587102      -4.87286606      -4.74237967
O       -6.31568819      -5.84082852      -3.97577477
C       -7.56447122      -4.94979029      -5.74856050
C       -8.43362568      -6.05525508      -5.66524125
C       -9.49293339      -6.22124838      -6.56592053
C       -9.70398909      -5.27229421      -7.56056120
C       -8.84519521      -4.18514306      -7.68267518
C       -7.76556686      -4.04445631      -6.79988790
H       -0.12765982      -2.65137540      -2.87189600
H       -1.55760778      -4.00954763      -4.35382184
H       -5.06420820      -2.52049070      -2.32664878
H       -3.64488526      -1.12368562      -0.89535459
H       -8.35270820      -0.35333910      -4.97655553
H       -7.35026347      -0.16595671      -3.56134793
H       -6.62809681       0.17435602      -6.43905175
H       -5.94102694       0.96054478      -4.99996993
H       -8.28329441      -6.80337961      -4.88903022
H      -10.14175870      -7.08698107      -6.47258136
H       -9.00114687      -3.43016375      -8.44812398
H       -7.10942890      -3.19045685      -6.93691281
C      -10.81107617      -5.41927638      -8.46960160
C      -11.73826160      -5.54237395      -9.23092293
Br     -13.23744203      -5.74141230     -10.46191513
C       -1.79208327       1.79208327       1.79208327
C       -3.14950856       1.91710182       1.50558732
C       -3.94576671       2.76331037       2.28370662
C       -3.39185578       3.49071278       3.35015479
C       -2.03908069       3.29528396       3.66732108
C       -1.23407721       2.46979587       2.87368029
C       -4.29076356       4.43217925       4.10830165
O       -5.50650763       4.23060393       4.02577961
N       -3.73437404       5.49686542       4.82394886
C       -2.65516957       6.23840600       4.35486590
N       -1.76162946       6.80317288       5.18182890
C       -0.67216045       7.44133248       4.44168710
C       -1.03789056       7.66840201       2.98339822
S       -2.38913352       6.52983796       2.67535281
C       -4.29117599       5.66418156       6.09575920
O       -4.62483631       4.70251234       6.80494283
C       -4.55575082       7.04172531       6.66534588
C       -5.06111436       7.11476543       7.97824223
C       -5.35539170       8.34425902       8.58045158
C       -5.13641661       9.52372933       7.87669857
C       -4.66360910       9.47994422       6.56946015
C       -4.40522894       8.24417988       5.96050224
H       -3.59620138       1.38109749       0.67363234
H       -5.00153009       2.87360482       2.04584234
H       -1.58436056       3.82230670       4.50468042
H       -0.17522965       2.38663193       3.10206390
H       -0.38864963       8.39955233       4.89440088
H        0.23318066       6.82075451       4.48999426
H       -1.38259368       8.69359825       2.81660061
H       -0.19251380       7.47071294       2.31722535
H       -5.23304974       6.20004240       8.54261211
H       -5.74550725       8.36211476       9.59369913
H       -4.47854447      10.39196372       6.00892642
H       -4.05122115       8.25134756       4.93422985
C       -5.40558450      10.79291207       8.50145759
C       -5.63101260      11.85585261       9.02469326
Br      -5.99551079      13.57453756       9.87072110
C        1.79208327      -1.79208327       1.79208327
C        3.15831418      -1.87902885       1.53485468
C        3.95616713      -2.72478280       2.31183376
C        3.39514565      -3.48967635       3.34790135
C        2.03119692      -3.33297447       3.63751434
C        1.22544906      -2.50776528       2.84433902
C        4.29829728      -4.42780242       4.10514476
O        5.51053081      -4.19640052       4.05595984
N        3.75082409      -5.52158642       4.78277781
C        2.70048144      -6.27651716       4.27144287
N        1.80169625      -6.88103918       5.06389581
C        0.74489911      -7.52649339       4.28378752
C        1.14935756      -7.71065182       2.82968141
S        2.48012699      -6.53433528       2.57986203
C        4.28198476      -5.70596450       6.06316748
O        4.57647221      -4.75384842       6.80197085
C        4.56576619      -7.09009220       6.60696363
C        5.04234863      -7.18239803       7.92937536
C        5.35157626      -8.41864088       8.50988516
C        5.17671963      -9.58592729       7.77419759
C        4.73323472      -9.52224435       6.45753438
C        4.45989239      -8.27874862       5.87127006
H        3.61128745      -1.31342432       0.72621945
H        5.01943321      -2.80510381       2.09644022
H        1.56986459      -3.88991447       4.45156862
H        0.15995814      -2.45440763       3.04955970
H        0.47370117      -8.50138960       4.70751206
H       -0.17568778      -6.92823531       4.32502058
H        1.52187453      -8.72342416       2.64749385
H        0.31511878      -7.51683439       2.14849892
H        5.17963950      -6.27751339       8.51855137
H        5.71857185      -8.45138397       9.53136531
H        4.58266969     -10.42481963       5.87194528
H        4.12987456      -8.26987705       4.83704694
C        5.46126761     -10.86294728       8.37573926
C        5.69957654     -11.93245153       8.87953041
Br       6.08490192     -13.66174944       9.69411809
C       -0.00445707       0.01189536      -1.78238275
H       -0.66409135       0.67374010      -2.43557963
H        0.65740317      -0.63156657      -2.45157240
C       -0.90989263      -0.90692880      -0.91072765
C        0.90977584       0.90977584      -0.90977584
C       -0.00465871       1.77757030       0.00794375
H       -0.66225468       2.44313916      -0.64384735
H        0.64322798       2.43503045       0.67728295
C       -1.78241447       0.00034974      -0.00472694
H       -2.45427497      -0.65498947       0.64260836
H       -2.43311707       0.67328779      -0.65473579
C       -0.91132561       0.90220522       0.91563759
C       -0.01476271      -0.02253852       1.78660255
H       -0.67934791      -0.69751639       2.42135241
H        0.63392994       0.61504881       2.47327442
C        0.01484550      -1.77751727      -0.01636693
H        0.67870853      -2.42144646      -0.68295456
H       -0.62264859      -2.45592969       0.64226336
C        1.78714474       0.01002794       0.00389507
H        2.44202412       0.67113390       0.66197326
H        2.45385902      -0.65136977      -0.64189061
C        0.91606151      -0.90478549       0.90901405
