194
Properties=species:S:1:pos:R:3 pbc="F F F"
C        9.08688982       6.59399345      -2.50013901
O        9.53680688       5.85088271      -1.36875426
C        8.93382432       4.62271957      -1.22772680
C        7.58043038       4.39339738      -1.48890609
C        7.03139134       3.12116247      -1.30019654
N        5.67709770       2.82795802      -1.57008048
C        4.82719194       3.51688574      -2.41181395
O        5.15091789       4.49141554      -3.08958587
C        3.49671631       2.94756174      -2.48132859
C        2.48579390       3.12485312      -3.40764993
C        1.38043588       2.36586688      -2.95619923
C        1.77768713       1.77768713      -1.77768713
O        3.06813188       2.10030664      -1.49301415
C        7.83402872       2.08322305      -0.79106995
O        7.20192172       0.88159995      -0.56846922
C        7.77885972       0.07014368       0.45173123
C        9.20068440       2.29576818      -0.58970342
C        9.75068437       3.56445607      -0.80120773
N       11.11665696       3.83030289      -0.57553518
C       12.14865565       2.96028772      -0.87580811
O       12.00283249       1.88368341      -1.44493474
C       13.45425890       3.47841617      -0.52691674
C       14.68367194       3.33606412      -1.14234464
C       15.63339650       3.96491499      -0.30005210
C       14.92839034       4.44064033       0.78156752
O       13.60049489       4.19135679       0.63243864
H        9.78664536       7.42136162      -2.65232335
H        8.09782111       7.02701987      -2.32280558
H        9.09122966       5.98032250      -3.40852898
H        6.94525171       5.21440207      -1.80038545
H        5.35630971       1.91940983      -1.24470150
H        2.55334018       3.73598397      -4.29820184
H        0.41155586       2.27297922      -3.42651077
H        7.06051761      -0.71844821       0.69591574
H        7.96431952       0.64574972       1.36556512
H        8.69440687      -0.41285447       0.09731812
H        9.84314925       1.49004604      -0.25235015
H       11.36502807       4.81003739      -0.47725491
H       14.86371387       2.82637716      -2.08016327
H       16.70146123       4.03669015      -0.45222622
C       15.50795004       5.08712976       1.93037646
C       15.99333129       5.62856465       2.89250395
Br      16.77815172       6.50401908       4.44818272
C       -2.94904108      -5.66669042      -9.56529078
O       -1.54179715      -5.49342569      -9.72122101
C       -0.85308212      -5.39662810      -8.53456046
C       -1.33523472      -4.71083840      -7.41666073
C       -0.56733762      -4.63503898      -6.25037375
N       -1.01455592      -3.97551256      -5.08506772
C       -2.32081196      -3.70486977      -4.73020989
O       -3.30792047      -4.04039882      -5.38360001
C       -2.44415545      -3.02435078      -3.45710040
C       -3.53204859      -2.86788112      -2.61836723
C       -3.09983835      -2.06914962      -1.53351402
C       -1.77768713      -1.77768713      -1.77768713
O       -1.36053333      -2.37397405      -2.92694529
C        0.71966575      -5.20397005      -6.22401742
O        1.43765423      -5.02567607      -5.06396905
C        2.85482569      -5.03424814      -5.21784972
C        1.17592843      -5.94305757      -7.31902686
C        0.39496525      -6.03540663      -8.47590679
N        0.83332193      -6.74059792      -9.61521904
C        1.53174687      -7.93360633      -9.58289202
O        1.78651875      -8.55894023      -8.55902916
C        1.87195552      -8.43379878     -10.89774855
C        1.94986424      -9.72368148     -11.38826346
C        2.43944753      -9.62393613     -12.71387500
C        2.64157227      -8.28287709     -12.94615833
O        2.25783821      -7.54896647     -11.86828477
H       -3.35460441      -5.97065022     -10.53507571
H       -3.43575053      -4.72799457      -9.28390146
H       -3.17627797      -6.46008652      -8.84371665
H       -2.29060794      -4.20174290      -7.46768839
H       -0.31136378      -3.84741808      -4.36163918
H       -4.51627166      -3.28551422      -2.78574011
H       -3.68583392      -1.73729191      -0.68792002
H        3.29244501      -4.64523714      -4.29336154
H        3.17354832      -4.38052486      -6.03752758
H        3.22753734      -6.05328136      -5.35849026
H        2.14165817      -6.43538112      -7.29182248
H        0.35141709      -6.52183626     -10.48190121
H        1.69378455     -10.62227179     -10.84176705
H        2.64403522     -10.43267893     -13.40173389
C        3.20732625      -7.72494205     -14.14708753
C        3.68114520      -7.25767146     -15.15286573
Br       4.44727037      -6.50213443     -16.77912402
C       -6.57105050       9.10108845       2.50888332
O       -6.60050734       9.07288890       1.08304761
C       -6.42091910       7.82097787       0.54237371
C       -5.52586581       6.87958298       1.05728506
C       -5.37978746       5.63360275       0.43936014
N       -4.50806632       4.63733403       0.92973585
C       -4.02691202       4.51155347       2.21742613
O       -4.32633983       5.25307781       3.15250166
C       -3.15977300       3.36538575       2.40044789
C       -2.74833375       2.71880933       3.55115386
C       -1.86221438       1.69212982       3.14815779
C       -1.77768713       1.77768713       1.77768713
O       -2.58124087       2.77049753       1.30971427
C       -6.09628959       5.35047406      -0.73844193
O       -5.84423401       4.13071100      -1.32295413
C       -6.05311828       4.07619386      -2.73203998
C       -7.03709573       6.26643300      -1.21737272
C       -7.19641681       7.50298354      -0.58305217
N       -8.10809322       8.46927346      -1.05487166
C       -9.36223283       8.18670275      -1.56418410
O       -9.86032530       7.06635164      -1.59522629
C      -10.08568305       9.36523912      -1.99133036
C      -11.43228713       9.67318627      -1.94339269
C      -11.58723518      10.91619368      -2.60506525
C      -10.32991459      11.28371254      -3.02616398
O       -9.40578555      10.37345673      -2.61982924
H       -6.95829680      10.07322092       2.82881261
H       -5.54788887       9.01320655       2.88655114
H       -7.21707995       8.32584122       2.93715997
H       -4.91336875       7.13155132       1.91511917
H       -4.36641760       3.84193722       0.31206621
H       -3.05858622       2.97255933       4.55638044
H       -1.34077489       0.98846641       3.78180455
H       -5.59296144       3.15459412      -3.10140190
H       -5.56984175       4.91696120      -3.24229883
H       -7.12048407       4.03227185      -2.96852164
H       -7.63787104       6.03846291      -2.09078852
H       -7.95780488       9.41697848      -0.72246299
H      -12.20319817       9.06070828      -1.49365216
H      -12.50600497      11.46008133      -2.77570869
C      -10.02673766      12.45098945      -3.81302378
C       -9.77282699      13.42858387      -4.47201887
Br      -9.36227490      15.00927137      -5.53755818
C        2.42700241      -6.80041818       8.95360169
O        1.00492358      -6.87777833       8.87374194
C        0.50149818      -6.67246696       7.61030555
C        1.01627776      -5.72736946       6.71908664
C        0.43668330      -5.55838949       5.45767756
N        0.92967013      -4.63548724       4.50997883
C        2.20300136      -4.10624981       4.44664045
O        3.12212544      -4.39957407       5.21021979
C        2.39431785      -3.19314560       3.33814319
C        3.55118654      -2.71972752       2.74738288
C        3.15242499      -1.81202855       1.73804845
C        1.77768713      -1.77768713       1.77768713
O        1.30477138      -2.63161334       2.72506795
C       -0.70449239      -6.30438004       5.10843407
O       -1.25538197      -6.02933735       3.87803551
C       -2.65345004      -6.28439531       3.76632690
C       -1.18083592      -7.29303530       5.97395662
C       -0.58407146      -7.47434385       7.22607578
N       -1.05607543      -8.43544997       8.14312049
C       -1.51048614      -9.69549519       7.79974244
O       -1.48532898     -10.15422008       6.66255954
C       -1.95184760     -10.47461628       8.93682313
C       -1.86667163     -11.82887631       9.19987602
C       -2.56469414     -12.05053155      10.41252619
C       -3.04258690     -10.82226514      10.80778490
O       -2.63835369      -9.85296118       9.94480554
H        2.72693777      -7.21076581       9.92262676
H        2.77085554      -5.76241914       8.91437187
H        2.90433028      -7.40340049       8.17235036
H        1.84264296      -5.09513216       7.02226412
H        0.33502185      -4.48693943       3.69845975
H        4.55750356      -3.00411659       3.02590583
H        3.79091549      -1.24446340       1.07566697
H       -3.00708389      -5.80471924       2.84851831
H       -3.20912363      -5.84911012       4.60451762
H       -2.85019402      -7.35701312       3.67741519
H       -2.02400419      -7.91495307       5.69459655
H       -0.76194498      -8.30762296       9.10664239
H       -1.36905403     -12.56163681       8.57767152
H       -2.72113893     -12.99336960      10.91814694
C       -3.87932904     -10.58796015      11.95607222
C       -4.58010057     -10.39172971      12.91776285
Br      -5.71318888     -10.07444170      14.47273527
C       -0.00445707       0.01189536      -1.78238275
H       -0.66409135       0.67374010      -2.43557963
H        0.65740317      -0.63156657      -2.45157240
C       -0.90989263      -0.90692880      -0.91072765
C        0.90977584       0.90977584      -0.90977584
C       -0.00465871       1.77757030       0.00794375
H       -0.66225468       2.44313916      -0.64384735
H        0.64322798       2.43503045       0.67728295
C       -1.78241447       0.00034974      -0.00472694
H       -2.45427497      -0.65498947       0.64260836
H       -2.43311707       0.67328779      -0.65473579
C       -0.91132561       0.90220522       0.91563759
C       -0.01476271      -0.02253852       1.78660255
H       -0.67934791      -0.69751639       2.42135241
H        0.63392994       0.61504881       2.47327442
C        0.01484550      -1.77751727      -0.01636693
H        0.67870853      -2.42144646      -0.68295456
H       -0.62264859      -2.45592969       0.64226336
C        1.78714474       0.01002794       0.00389507
H        2.44202412       0.67113390       0.66197326
H        2.45385902      -0.65136977      -0.64189061
C        0.91606151      -0.90478549       0.90901405
