165
Properties=species:S:1:pos:R:3 pbc="F F F"
C        0.00000000       0.00000000       0.00000000
C        8.17698580       5.68408942      -1.59023498
O        8.62690286       4.94097869      -0.45885023
C        8.02392029       3.71281555      -0.31782277
C        6.67052635       3.48349335      -0.57900207
C        6.12148732       2.21125844      -0.39029252
N        4.76719368       1.91805399      -0.66017646
C        3.91728791       2.60698171      -1.50190993
O        4.24101387       3.58151152      -2.17968184
C        2.58681229       2.03765771      -1.57142457
C        1.57588988       2.21494909      -2.49774590
C        0.47053186       1.45596286      -2.04629520
C        0.86778311       0.86778311      -0.86778311
O        2.15822785       1.19040262      -0.58311012
C        6.92412470       1.17331903       0.11883407
O        6.29201770      -0.02830408       0.34143480
C        6.86895570      -0.83976034       1.36163526
C        8.29078038       1.38586416       0.32020061
C        8.84078035       2.65455205       0.10869629
N       10.20675293       2.92039886       0.33436884
C       11.23875163       2.05038370       0.03409591
O       11.09292846       0.97377939      -0.53503071
C       12.54435488       2.56851214       0.38298728
C       13.77376791       2.42616009      -0.23244062
C       14.72349248       3.05501097       0.60985192
C       14.01848631       3.53073631       1.69147155
Br      14.76912214       4.36805837       3.17938927
O       12.69059086       3.28145276       1.54234267
H        8.87674134       6.51145759      -1.74241933
H        7.18791708       6.11711584      -1.41290156
H        8.18132563       5.07041848      -2.49862495
H        6.03534769       4.30449805      -0.89048142
H        4.44640569       1.00950580      -0.33479747
H        1.64343616       2.82607994      -3.38829782
H       -0.49834816       1.36307520      -2.51660674
H        6.15061359      -1.62835224       1.60581976
H        7.05441550      -0.26415430       2.27546914
H        7.78450284      -1.32275849       1.00722214
H        8.93324523       0.58014201       0.65755388
H       10.45512405       3.90013336       0.43264911
H       13.95380984       1.91647313      -1.17025925
H       15.79155720       3.12678613       0.45767780
C       -2.14852059      -4.57744084      -8.72534877
O       -0.75125502      -4.36136614      -8.91411062
C       -0.03296012      -4.27747788      -7.74412061
C       -0.50234864      -3.63543782      -6.59523531
C        0.29507153      -3.56980530      -5.44830451
N       -0.13739888      -2.95431761      -4.25370763
C       -1.44017050      -2.72936325      -3.85664580
O       -2.43555223      -3.07431844      -4.49233656
C       -1.54659891      -2.08686778      -2.56242787
C       -2.61478176      -1.98295751      -1.69084561
C       -2.17442033      -1.20198982      -0.59637977
C       -0.86778311      -0.86778311      -0.86778311
O       -0.46660802      -1.42133619      -2.04379638
C        1.59709928      -4.10357566      -5.47213327
O        2.34172868      -3.93673168      -4.32727582
C        3.75384474      -3.90214094      -4.51926389
C        2.04267602      -4.80020076      -6.59891919
C        1.23290210      -4.88298271      -7.73655549
N        1.65845734      -5.54504232      -8.90619797
C        2.38923332      -6.71879973      -8.92547300
O        2.68877743      -7.36409767      -7.92641832
C        2.70638351      -7.17400998     -10.26225327
C        2.80529805      -8.44764652     -10.79002016
C        3.25533596      -8.29895982     -12.12502767
C        3.41496888      -6.94709858     -12.32562137
Br       4.08497387      -6.16313227     -13.87963285
O        3.04153398      -6.25318967     -11.21804527
H       -2.57234712      -4.86635265      -9.69191850
H       -2.65228063      -3.66038567      -8.40526818
H       -2.33445021      -5.39585002      -8.02006884
H       -1.47206695      -3.15166374      -6.60659647
H        0.58176517      -2.82634066      -3.54613347
H       -3.59169354      -2.42290353      -1.84321685
H       -2.74558842      -0.90918163       0.27343627
H        4.20617634      -3.52614376      -3.59647417
H        4.03223422      -3.21815217      -5.32887409
H        4.14972103      -4.90638642      -4.69785682
H        3.02163751      -5.26629150      -6.61117938
H        1.14717468      -5.31648496      -9.75329802
H        2.58854449      -9.36727392     -10.26181279
H        3.46250443      -9.08303342     -12.84013654
C       -5.14673858       8.47792864       1.82664298
O       -5.06356510       8.55824845       0.40491823
C       -4.93467435       7.33961940      -0.21973514
C       -4.15634006       6.29369918       0.28298254
C       -4.05411082       5.08939955      -0.42047209
N       -3.30107615       3.99263340       0.05171458
C       -2.93561292       3.73323831       1.35732832
O       -3.25324632       4.42485849       2.32410242
C       -2.17358261       2.51068767       1.51162428
C       -1.90512163       1.74940846       2.63405478
C       -1.06826358       0.68766248       2.21686386
C       -0.86778311       0.86778311       0.86778311
O       -1.55511676       1.95397003       0.42265380
C       -4.69273077       4.95308142      -1.66720253
O       -4.48589656       3.76384382      -2.32746156
C       -4.58437442       3.83117405      -3.74798838
C       -5.52132433       5.97471975      -2.13960015
C       -5.63873486       7.16949153      -1.42159029
N       -6.43520388       8.23828964      -1.88071057
C       -7.66189529       8.09602977      -2.50288565
O       -8.23777802       7.02473277      -2.66077222
C       -8.25908146       9.35735681      -2.88655853
C       -9.57855683       9.76807476      -2.91426296
C       -9.58702256      11.06524545      -3.48361648
C       -8.27610721      11.36084574      -3.77920188
Br      -7.69154556      12.90780623      -4.64156054
O       -7.45783438      10.35161222      -3.37974563
H       -5.48510171       9.45155100       2.19396555
H       -4.16659739       8.28030313       2.27103396
H       -5.88091867       7.72740576       2.14204464
H       -3.59771078       6.43118324       1.20143314
H       -3.16977824       3.23654711      -0.61561639
H       -2.27540712       1.95183996       3.63056683
H       -0.65316680      -0.10076462       2.82893160
H       -4.16581130       2.90559767      -4.15496739
H       -4.00051299       4.66599254      -4.15171348
H       -5.62959397       3.89084430      -4.06591606
H       -6.06526666       5.86130626      -3.07073956
H       -6.24208000       9.14351901      -1.46299071
H      -10.42649387       9.18778062      -2.57373228
H      -10.44613583      11.69236219      -3.67783250
C        1.36651190      -7.60927224       6.47552606
O        0.10441704      -7.99094865       5.93136608
C       -0.12453005      -7.51935191       4.65973675
C        0.25792812      -6.24640030       4.22869336
C       -0.02986554      -5.82680437       2.92609945
N        0.35299585      -4.56140589       2.43102239
C        1.36856410      -3.75444973       2.90316571
O        2.12529315      -4.04953730       3.82737677
C        1.51558535      -2.51816556       2.16214365
C        2.56663634      -1.62213285       2.09981569
C        2.15020280      -0.56181671       1.26077040
C        0.86778311      -0.86778311       0.86778311
O        0.48147293      -2.06501146       1.38525620
C       -0.75762289      -6.67022725       2.06600529
O       -1.06014478      -6.15634209       0.82608151
C       -2.23611890      -6.68535003       0.21832897
C       -1.08485922      -7.96590766       2.47539549
C       -0.77518322      -8.38980820       3.77201112
N       -1.11937847      -9.67556702       4.23659440
C       -1.05442269     -10.83050402       3.47895808
O       -0.61660164     -10.88381100       2.33452921
C       -1.48039944     -12.01196792       4.19831127
C       -1.03338821     -13.31887569       4.14688115
C       -1.89026689     -14.07324329       4.98567513
C       -2.81330191     -13.18431566       5.48673732
Br      -4.25630224     -13.63511439       6.57897910
O       -2.54671152     -11.92425190       5.05216058
H        1.54346441      -8.22350534       7.36364852
H        1.36113721      -6.56255864       6.79423863
H        2.18125718      -7.80143297       5.76767892
H        0.74375036      -5.56714886       4.91942795
H       -0.04843485      -4.30729822       1.53184559
H        3.51520148      -1.73404799       2.60856444
H        2.71230399       0.32093954       0.98996934
H       -2.49653762      -6.03645684      -0.62347763
H       -3.08288038      -6.68378428       0.91388815
H       -2.05438618      -7.68830192      -0.17939353
H       -1.59502070      -8.64723546       1.80361860
H       -1.11772271      -9.79533163       5.24499938
H       -0.19630104     -13.67600347       3.56083979
H       -1.85333788     -15.13672614       5.17727728
