194
Properties=species:S:1:pos:R:3 pbc="F F F"
C        1.79200500       1.79200500      -1.79200500
C        1.61189347       3.17686907      -1.78247982
C        2.41830344       3.98391447      -2.58425385
C        3.39827016       3.38835593      -3.37434927
O        4.20098914       4.23094463      -4.16228432
C        5.24265084       3.72997255      -4.93756250
O        5.93834461       4.47999298      -5.61635978
C        5.47951316       2.27163267      -4.89717392
C        4.67681181       1.46476583      -4.18221451
C        3.59385634       2.01138219      -3.38365323
C        2.77709476       1.20368895      -2.58946628
C        6.62995518       1.61861386      -5.58808172
O        6.78668460       0.39628546      -5.57147919
N        7.52790166       2.45510456      -6.20577844
N        8.70876708       1.89840695      -6.70216129
C        9.52690546       2.65977299      -7.51274430
O        9.37885172       3.86979286      -7.67744982
C       10.70045083       1.87855259      -8.11625245
H       10.94173183       2.37297548      -9.06192021
C       11.86447418       1.90924764      -7.13212637
O       10.24732206       0.53487079      -8.31585934
C       10.99095022      -0.31427130      -9.08615504
C       11.77262244       0.09315119     -10.16973954
C       12.46525102      -0.85134860     -10.93439402
C       12.37780965      -2.20770383     -10.62773658
C       11.59358144      -2.62681350      -9.55543935
C       10.89954939      -1.68416752      -8.79257062
H        0.85104230       3.63322039      -1.15371283
H        2.28969962       5.06277804      -2.58513981
H        4.84175065       0.39057959      -4.13867879
H        2.91270861       0.12479723      -2.57850668
H        7.42436704       3.47500371      -6.25339299
H        8.74088721       0.87783477      -6.76726348
H       11.61674507       1.36845366      -6.21135778
H       12.13042762       2.93639207      -6.86299149
H       12.74987087       1.42467541      -7.55527978
H       11.84621029       1.13331098     -10.46698872
H       13.06605499      -0.52609103     -11.78078573
H       12.91395315      -2.93846620     -11.22837614
H       11.52451784      -3.68659081      -9.32403701
C       10.10270919      -2.16168791      -7.69228885
C        9.43535552      -2.56161123      -6.77080287
Br       8.35630108      -3.20825342      -5.28083797
C       -1.79200500      -1.79200500      -1.79200500
C       -2.03648581      -3.11550828      -1.41924826
C       -2.84412361      -3.92113716      -2.22121099
C       -3.40070369      -3.38198944      -3.37828224
O       -4.21853075      -4.21735706      -4.15833029
C       -4.86369643      -3.74781654      -5.29867292
O       -5.57924794      -4.48895817      -5.96649126
C       -4.66137679      -2.32859471      -5.65834826
C       -3.83776184      -1.54797602      -4.93805429
C       -3.17297516      -2.06227615      -3.75364044
C       -2.35383186      -1.26061168      -2.95580645
C       -5.38150673      -1.66851664      -6.78662739
O       -5.16924670      -0.49345365      -7.09174889
N       -6.32414058      -2.42651156      -7.43813252
N       -7.14464258      -1.79151577      -8.37317697
C       -7.94768474      -2.55470347      -9.19703455
O       -8.13113887      -3.76019419      -9.03476134
C       -8.67095531      -1.74455180     -10.27974877
H       -8.82910276      -2.42921771     -11.11830706
C       -9.98164240      -1.22088376      -9.70332203
O       -7.80801991      -0.65755068     -10.63248160
C       -8.07458866       0.06990497     -11.75815027
C       -8.67785013      -0.45355021     -12.90411283
C       -8.87012551       0.35267869     -14.03084962
C       -8.45656324       1.68320869     -14.02448785
C       -7.84493993       2.21360437     -12.89087173
C       -7.65041250       1.40825386     -11.76579385
H       -1.60600617      -3.52395889      -0.50801046
H       -3.04359403      -4.95202824      -1.94199520
H       -3.68298065      -0.50066359      -5.18736478
H       -2.16312195      -0.22514264      -3.22774793
H       -6.51896795      -3.41084818      -7.22294761
H       -6.85802027      -0.85591045      -8.67205473
H       -9.79820764      -0.50197042      -8.89637845
H      -10.59275261      -2.03538543      -9.30167314
H      -10.56554421      -0.69747918     -10.46680267
H       -8.98714115      -1.49080102     -12.96856782
H       -9.33434551      -0.06490094     -14.92150324
H       -8.60353953       2.30437862     -14.90470217
H       -7.51927757       3.25061108     -12.89329755
C       -7.01608003       1.99833465     -10.61556475
C       -6.48482659       2.49252731      -9.65224788
Br      -5.62583470       3.29159504      -8.09464597
C       -1.79200500       1.79200500       1.79200500
C       -3.15730124       1.51738697       1.89655415
C       -3.96339788       2.31921475       2.70385913
C       -3.38391297       3.37681205       3.40025035
O       -4.22217812       4.15864965       4.21339032
C       -3.72085282       5.19860542       4.99072764
O       -4.46563144       5.86898289       5.70008304
C       -2.26521970       5.44854051       4.93455955
C       -1.47603983       4.73126168       4.11649065
C       -2.02362879       3.65300356       3.31225941
C       -1.22013834       2.85654013       2.49357151
C       -1.58217301       6.45395736       5.80052039
O       -0.37248671       6.67174412       5.71021842
N       -2.36473530       7.09144660       6.73260275
N       -1.73077092       7.89913784       7.67942657
C       -2.49257347       8.71938447       8.48746482
O       -3.71854963       8.64839459       8.55915018
C       -1.66441957       9.66625581       9.36458049
H       -2.29100297      10.54583040       9.53979416
C       -1.30446141       8.94354721      10.65783957
O       -0.48179793       9.99099689       8.62525737
C        0.30738184      11.02422411       9.04599169
C       -0.17324468      12.15944874       9.70281976
C        0.70070192      13.19282703      10.05617132
C        2.05736744      13.10388705       9.75132279
C        2.54659998      11.98098748       9.08781979
C        1.67385406      10.94936015       8.73244640
H       -3.59831436       0.68245716       1.35720400
H       -5.02673840       2.11563952       2.79523955
H       -0.40266935       4.90014040       4.06819928
H       -0.15359517       3.05179357       2.41062379
H       -3.37632448       6.94777744       6.82866182
H       -0.75289962       8.13748977       7.49559607
H       -0.63914416       8.09440996      10.46300239
H       -2.19850636       8.56667212      11.16463271
H       -0.77445137       9.60949362      11.34588106
H       -1.22497355      12.28891166       9.93262478
H        0.31688788      14.07644029      10.56119727
H        2.73178040      13.91218045      10.02346304
H        3.60485682      11.91926725       8.84755361
C        2.22300023       9.80658997       8.04972039
C        2.68291015       8.84951995       7.47793736
Br       3.42654559       7.30201867       6.55341255
C        1.79200500      -1.79200500       1.79200500
C        3.16314957      -1.53841346       1.86967933
C        3.96933596      -2.34022267       2.67691314
C        3.38430003      -3.37654726       3.40012808
O        4.22306940      -4.15881033       4.21233836
C        3.71780331      -5.17747387       5.01490871
O        4.46320865      -5.84844980       5.72303892
C        2.25755224      -5.40410006       4.98666745
C        1.46671912      -4.68727337       4.16979967
C        2.01841528      -3.63152472       3.33895176
C        1.21455789      -2.83530749       2.52038460
C        1.57264870      -6.38377134       5.88023073
O        0.35823612      -6.58289697       5.81331616
N        2.36006082      -7.01885894       6.80986490
N        1.72879623      -7.80035266       7.78018643
C        2.49041201      -8.61982864       8.58918211
O        3.71840455      -8.56803437       8.63965547
C        1.66158148      -9.53837992       9.49529448
H        2.27654365     -10.42525468       9.67482919
C        1.33498260      -8.78878039      10.78208520
O        0.46170883      -9.85547551       8.78086785
C       -0.33714216     -10.86845665       9.23151947
C        0.13572215     -12.00062733       9.89916369
C       -0.74899346     -13.01345273      10.28383716
C       -2.10889869     -12.90699797       9.99974313
C       -2.59067868     -11.78711515       9.32577082
C       -1.70722557     -10.77605332       8.93912473
H        3.60872243      -0.71983415       1.30941894
H        5.03722830      -2.15285831       2.74753086
H        0.39008108      -4.83908072       4.14184722
H        0.14373957      -3.01416149       2.45811146
H        3.37531551      -6.89044915       6.88699908
H        0.74424788      -8.02541204       7.61632555
H        0.68047449      -7.93201224      10.58406979
H        2.24334873      -8.41857173      11.26789073
H        0.80566338      -9.43451765      11.48964503
H        1.18886639     -12.14375834      10.11388526
H       -0.37132711     -13.89495172      10.79712508
H       -2.79180797     -13.69943679      10.29623427
H       -3.65162865     -11.71177092       9.10182177
C       -2.24889759      -9.63562475       8.24658297
C       -2.70254791      -8.68051582       7.66657924
Br      -3.43606210      -7.13618547       6.72876227
C       -0.00445707       0.01189536      -1.78238275
H       -0.66409135       0.67374010      -2.43557963
H        0.65740317      -0.63156657      -2.45157240
C       -0.90989263      -0.90692880      -0.91072765
C        0.90977584       0.90977584      -0.90977584
C       -0.00465871       1.77757030       0.00794375
H       -0.66225468       2.44313916      -0.64384735
H        0.64322798       2.43503045       0.67728295
C       -1.78241447       0.00034974      -0.00472694
H       -2.45427497      -0.65498947       0.64260836
H       -2.43311707       0.67328779      -0.65473579
C       -0.91132561       0.90220522       0.91563759
C       -0.01476271      -0.02253852       1.78660255
H       -0.67934791      -0.69751639       2.42135241
H        0.63392994       0.61504881       2.47327442
C        0.01484550      -1.77751727      -0.01636693
H        0.67870853      -2.42144646      -0.68295456
H       -0.62264859      -2.45592969       0.64226336
C        1.78714474       0.01002794       0.00389507
H        2.44202412       0.67113390       0.66197326
H        2.45385902      -0.65136977      -0.64189061
C        0.91606151      -0.90478549       0.90901405
