186
Properties=species:S:1:pos:R:3 pbc="F F F"
C        1.79200500       1.79200500      -1.79200500
C        1.61189347       3.17686907      -1.78247982
C        2.41830344       3.98391447      -2.58425385
C        3.39827016       3.38835593      -3.37434927
O        4.20098914       4.23094463      -4.16228432
C        5.24265084       3.72997255      -4.93756250
O        5.93834461       4.47999298      -5.61635978
C        5.47951316       2.27163267      -4.89717392
C        4.67681181       1.46476583      -4.18221451
C        3.59385634       2.01138219      -3.38365323
C        2.77709476       1.20368895      -2.58946628
C        6.62995518       1.61861386      -5.58808172
O        6.78668460       0.39628546      -5.57147919
N        7.52790166       2.45510456      -6.20577844
N        8.70876708       1.89840695      -6.70216129
C        9.52690546       2.65977299      -7.51274430
O        9.37885172       3.86979286      -7.67744982
C       10.70045083       1.87855259      -8.11625245
H       10.94173183       2.37297548      -9.06192021
C       11.86447418       1.90924764      -7.13212637
O       10.24732206       0.53487079      -8.31585934
C       10.99095022      -0.31427130      -9.08615504
C       11.77262244       0.09315119     -10.16973954
C       12.46525102      -0.85134860     -10.93439402
C       12.37780965      -2.20770383     -10.62773658
C       11.59358144      -2.62681350      -9.55543935
C       10.89954939      -1.68416752      -8.79257062
Br       9.84749465      -2.31462967      -7.33988707
H        0.85104230       3.63322039      -1.15371283
H        2.28969962       5.06277804      -2.58513981
H        4.84175065       0.39057959      -4.13867879
H        2.91270861       0.12479723      -2.57850668
H        7.42436704       3.47500371      -6.25339299
H        8.74088721       0.87783477      -6.76726348
H       11.61674507       1.36845366      -6.21135778
H       12.13042762       2.93639207      -6.86299149
H       12.74987087       1.42467541      -7.55527978
H       11.84621029       1.13331098     -10.46698872
H       13.06605499      -0.52609103     -11.78078573
H       12.91395315      -2.93846620     -11.22837614
H       11.52451784      -3.68659081      -9.32403701
C       -1.79200500      -1.79200500      -1.79200500
C       -1.83577870      -3.16946136      -1.56600229
C       -2.64291917      -3.97576091      -2.36779167
C       -3.39995661      -3.38479691      -3.37622184
O       -4.21097975      -4.22417673      -4.15906161
C       -5.04530564      -3.71499794      -5.14988230
O       -5.75187317      -4.46115874      -5.82166546
C       -5.05222234      -2.25008337      -5.34601404
C       -4.23693619      -1.45716038      -4.62969559
C       -3.37259378      -2.01291928      -3.60337870
C       -2.55419520      -1.20859108      -2.80746371
C       -5.98040580      -1.56408697      -6.29215799
O       -5.94297538      -0.34465332      -6.46682055
N       -6.90674548      -2.35768113      -6.92435805
N       -7.90633438      -1.73104577      -7.67195517
C       -8.71653674      -2.49246471      -8.49042130
O       -8.74037692      -3.72206265      -8.46365483
C       -9.65895716      -1.66414082      -9.37215789
H       -9.84445289      -2.26421571     -10.26795893
C      -10.93606189      -1.38056024      -8.58922607
O       -8.97650104      -0.44305195      -9.67849920
C       -9.46504219       0.36693067     -10.66472245
C      -10.14658860      -0.09636881     -11.79255576
C      -10.57096126       0.80083714     -12.77817232
C      -10.31298650       2.16395851     -12.64881441
C       -9.62556072       2.63655927     -11.53320584
C       -9.19927996       1.74069375     -10.54936628
Br      -8.26824438       2.44365678      -9.04816445
H       -1.24914113      -3.61995736      -0.76887704
H       -2.68734467      -5.04857317      -2.20169963
H       -4.23458446      -0.37725020      -4.75917437
H       -2.51799084      -0.13320799      -2.96481370
H       -6.96002893      -3.37679239      -6.81594242
H       -7.76777508      -0.73877934      -7.87943103
H      -10.73355394      -0.73993928      -7.72306329
H      -11.39492702      -2.30652407      -8.22836009
H      -11.66800673      -0.85307084      -9.20874850
H      -10.34237271      -1.15063065     -11.95350663
H      -11.09487887       0.43076073     -13.65663154
H      -10.64034730       2.85673941     -13.42025519
H       -9.42215356       3.70022747     -11.44003796
C       -1.79200500       1.79200500       1.79200500
C       -3.07777339       1.36392891       2.12954006
C       -3.88309077       2.16601491       2.93736608
C       -3.38079080       3.37934013       3.40084443
O       -4.21399294       4.15857136       4.22165379
C       -3.77546531       5.35648619       4.77823439
O       -4.51386070       6.02309093       5.49774574
C       -2.39129787       5.77894826       4.47807362
C       -1.61633117       5.05606981       3.65139117
C       -2.09805934       3.81074632       3.08008610
C       -1.29753496       3.01192318       2.26079184
C       -1.75815340       6.97912133       5.09937603
O       -0.61489399       7.33370302       4.80585224
N       -2.50041133       7.64127161       6.04710172
N       -1.87614857       8.65307051       6.78011625
C       -2.64061912       9.47897723       7.57982641
O       -3.82373255       9.26359621       7.83876564
C       -1.85513180      10.64184559       8.19827849
H       -2.57629507      11.45049315       8.34983930
C       -1.23135027      10.16818925       9.50630867
O       -0.83680091      11.00283395       7.25841733
C       -0.16035731      12.17860101       7.42387565
C       -0.71440830      13.32717791       7.99392696
C        0.03657953      14.50402642       8.08084955
C        1.34160569      14.54502448       7.59442360
C        1.90144298      13.40865718       7.01499309
C        1.15111885      12.23338320       6.92568813
Br       1.96846855      10.71368461       6.12753599
H       -3.45683726       0.40968338       1.77145489
H       -4.88473334       1.84418300       3.20870113
H       -0.59427606       5.35145502       3.42527795
H       -0.29045709       3.32723495       1.99832048
H       -3.45946561       7.38548645       6.30781168
H       -0.97522474       8.98458359       6.42617712
H       -0.47914928       9.39146190       9.32594533
H       -1.98859387       9.75877690      10.18244042
H       -0.72128207      10.98978804      10.01875594
H       -1.73579962      13.35380193       8.35690844
H       -0.40499336      15.39588319       8.51987314
H        1.91947554      15.46374691       7.65959172
H        2.91798246      13.44778648       6.63216003
C        1.79200500      -1.79200500       1.79200500
C        3.16193616      -1.53376235       1.87554384
C        3.96810297      -2.33557540       2.68279339
C        3.38421506      -3.37660453       3.40015577
O        4.22287591      -4.15877240       4.21256978
C        3.71840739      -5.18214026       5.00963824
O        4.46367804      -5.85298251       5.71803682
C        2.25909556      -5.41391718       4.97530702
C        1.46862346      -4.69699548       4.15817321
C        2.01948927      -3.63627375       3.33312874
C        1.21571242      -2.84000329       2.51453427
C        1.57452357      -6.39926850       5.86285868
O        0.36108690      -6.60252071       5.79084163
N        2.36087360      -7.03487182       6.79303925
N        1.72894775      -7.82213237       7.75825521
C        2.49060200      -8.64177874       8.56704202
O        3.71820983      -8.58574772       8.62213686
C        1.66183896      -9.56657421       9.46684271
H        2.27935050     -10.45187260       9.64540442
C        1.32790526      -8.82280802      10.75513491
O        0.46569865      -9.88540359       8.74694995
C       -0.33110486     -10.90287459       9.19106423
C        0.14343993     -12.03574028       9.85633296
C       -0.73899018     -13.05312626      10.23416036
C       -2.09823977     -12.95054121       9.94554096
C       -2.58163296     -11.82997245       9.27386780
C       -1.70045185     -10.81434745       8.89405690
Br      -2.41775093      -9.30794952       7.98255346
H        3.60656285      -0.71156624       1.31984643
H        5.03505047      -2.14462503       2.75794196
H        0.39264839      -4.85257490       4.12578575
H        0.14577821      -3.02248408       2.44775023
H        3.37537363      -6.90308825       6.87430186
H        0.74581491      -8.05014048       7.59003007
H        0.67102356      -7.96769142      10.55784152
H        2.23317383      -8.45108962      11.24554773
H        0.79837881      -9.47299782      11.45844943
H        1.19631467     -12.17585459      10.07434073
H       -0.35999204     -13.93510859      10.74563313
H       -2.77934487     -13.74649861      10.23670935
H       -3.64203526     -11.75763880       9.04636050
C       -0.00445707       0.01189536      -1.78238275
H       -0.66409135       0.67374010      -2.43557963
H        0.65740317      -0.63156657      -2.45157240
C       -0.90989263      -0.90692880      -0.91072765
C        0.90977584       0.90977584      -0.90977584
C       -0.00465871       1.77757030       0.00794375
H       -0.66225468       2.44313916      -0.64384735
H        0.64322798       2.43503045       0.67728295
C       -1.78241447       0.00034974      -0.00472694
H       -2.45427497      -0.65498947       0.64260836
H       -2.43311707       0.67328779      -0.65473579
C       -0.91132561       0.90220522       0.91563759
C       -0.01476271      -0.02253852       1.78660255
H       -0.67934791      -0.69751639       2.42135241
H        0.63392994       0.61504881       2.47327442
C        0.01484550      -1.77751727      -0.01636693
H        0.67870853      -2.42144646      -0.68295456
H       -0.62264859      -2.45592969       0.64226336
C        1.78714474       0.01002794       0.00389507
H        2.44202412       0.67113390       0.66197326
H        2.45385902      -0.65136977      -0.64189061
C        0.91606151      -0.90478549       0.90901405
