198
Properties=species:S:1:pos:R:3 pbc="F F F"
O        2.42094831      -2.73817017      -3.40864552
C        3.58642729      -2.34678523      -3.42848649
N        3.90577042      -1.04137494      -3.10956466
N        2.83577059      -0.18127497      -2.82838925
C        3.08866319       1.01527714      -2.18581189
O        4.23914575       1.40705215      -1.98303733
C        1.84003155       1.84003155      -1.84003155
C        2.19111328       3.08670546      -1.03225075
C        1.04883334       2.20649588      -3.09397486
C        4.68735090      -3.27377728      -3.81877831
C        5.99851458      -2.85719319      -4.07764682
C        6.95538020      -3.77790810      -4.52995385
C        6.61633374      -5.12345093      -4.73516114
C        5.31091940      -5.53919637      -4.44037196
C        4.35694712      -4.62438130      -3.99343200
C        7.62652009      -6.11433046      -5.26823169
N        7.23092906      -6.64409042      -6.57233499
N        6.49727584      -7.78141579      -6.61621622
C        6.24438809      -7.96533617      -7.91820152
C        5.40106445      -9.10302265      -8.35923935
C        6.87401573      -6.97526901      -8.69666772
Br       6.80622106      -6.86276885     -10.56552314
C        7.51993707      -6.13527605      -7.81871830
C        8.33590311      -4.91794050      -8.04312945
H        4.84089526      -0.66660812      -2.98072039
H        1.91908583      -0.63124472      -2.77429483
H        2.75187047       2.83448849      -0.12454595
H        1.29295110       3.63458214      -0.72385573
H        2.81341751       3.77171331      -1.61919057
H        0.71494480       1.32213040      -3.64872342
H        1.66323876       2.80268347      -3.77859907
H        0.15532190       2.79256123      -2.84955034
H        6.30064606      -1.82083673      -3.96737640
H        7.96431386      -3.42660536      -4.73911097
H        5.01724957      -6.57904224      -4.58552267
H        3.34274497      -4.97288899      -3.80313314
H        7.72992899      -6.95994113      -4.57792096
H        8.61804934      -5.66325677      -5.37713306
H        4.59856450      -8.75625744      -9.01842687
H        4.93368789      -9.60946489      -7.50803493
H        6.00363846      -9.83802804      -8.90178777
H        9.28716612      -4.97753888      -7.50539772
H        7.79742040      -4.02724763      -7.70539735
H        8.57305590      -4.78312231      -9.10286396
O       -3.22238555      -2.63499001       2.76595189
C       -3.21588793      -3.78618115       2.33394052
N       -2.93312497      -4.04849347       1.00765830
N       -2.72019196      -2.93996136       0.17726845
C       -2.11257229      -3.12806672      -1.04911322
O       -1.88426910      -4.25628246      -1.48868367
C       -1.84003155      -1.84003155      -1.84003155
C       -1.06581197      -2.11854363      -3.12571390
C       -3.13295184      -1.08210208      -2.13425016
C       -3.53433196      -4.93182798       3.23380802
C       -3.76242461      -6.23622299       2.77967939
C       -4.14801943      -7.23999779       3.68059127
C       -4.31645204      -6.95531771       5.04372580
C       -4.05231440      -5.65534756       5.49556698
C       -3.67176822      -4.65485926       4.60062966
C       -4.77834746      -8.01767275       6.01559889
N       -6.07552562      -7.68768650       6.60403850
N       -6.10396245      -6.99589544       7.76778163
C       -7.40648817      -6.79638550       8.00562023
C       -7.83537187      -6.00931692       9.18740763
C       -8.19769650      -7.41887219       7.02115425
Br     -10.07061045      -7.41429342       6.97592853
C       -7.32860203      -8.00342073       6.12864344
C       -7.56814378      -8.78427450       4.89132621
H       -2.78550622      -4.96485961       0.59535830
H       -2.68176387      -2.03805494       0.65768287
H       -0.13077549      -2.65478098      -2.92534844
H       -0.80854596      -1.19146902      -3.65137399
H       -1.65504462      -2.73740860      -3.81186817
H       -3.66685271      -0.79914305      -1.21980286
H       -3.81683537      -1.69965664      -2.72802929
H       -2.94078542      -0.16064458      -2.69600346
H       -3.67899992      -6.49814348       1.72995767
H       -4.33458492      -8.24301578       3.30078123
H       -4.17015791      -5.40324999       6.54967791
H       -3.50432019      -3.64715891       4.97848997
H       -4.05498689      -8.12547162       6.83254969
H       -4.86896270      -8.99625805       5.53329512
H       -8.53396058      -5.21945083       8.89267748
H       -6.98324355      -5.52952687       9.68051249
H       -8.33002258      -6.65604748       9.91867187
H       -6.99600866      -9.71713247       4.89811617
H       -7.28141953      -8.20351111       4.00936052
H       -8.62318537      -9.05447223       4.78486004
O       -1.52998138       4.05314661      -2.49170432
C       -1.39171630       5.01608034      -1.73966808
N       -1.47486575       4.86801455      -0.36892016
N       -1.78571213       3.58797280       0.10919995
C       -1.55514598       3.29511626       1.43948999
O       -1.21944855       4.16740362       2.24238306
C       -1.84003155       1.84003155       1.84003155
C       -1.45283654       1.56629993       3.29093302
C       -3.29867838       1.46649855       1.58412715
C       -1.14867835       6.37855715      -2.29488358
C       -1.19884364       7.54959738      -1.52947281
C       -1.05009704       8.80167402      -2.14434511
C       -0.85516171       8.90263526      -3.52975302
C       -0.77136388       7.72416214      -4.28343104
C       -0.92219996       6.47803406      -3.67423621
C       -0.74184842      10.24841469      -4.20984179
N       -1.83694936      10.47419224      -5.15196797
N       -1.66684533      10.11041741      -6.44518647
C       -2.84393326      10.37799746      -7.02467727
C       -3.06030214      10.05248272      -8.45550371
C       -3.73281129      10.96892902      -6.10632586
Br      -5.47874660      11.52578182      -6.49555307
C       -3.06776002      11.03930129      -4.90368199
C       -3.48756821      11.55028219      -3.57675833
H       -1.25401872       5.57536868       0.32562013
H       -1.81050103       2.85284210      -0.60120720
H       -0.40446306       1.82259620       3.48384564
H       -1.58810377       0.51035037       3.55293483
H       -2.06484429       2.16068794       3.97878915
H       -3.57804352       1.57763618       0.53011891
H       -3.97028478       2.10974514       2.16449138
H       -3.50383963       0.42732428       1.86626955
H       -1.38194266       7.52543178      -0.46018870
H       -1.10833736       9.69853668      -1.53005457
H       -0.61648477       7.76891544      -5.36167022
H       -0.88329841       5.58222945      -4.29253874
H        0.20072935      10.31474208      -4.76610392
H       -0.74828172      11.06990750      -3.48626360
H       -3.97710578       9.46797309      -8.58434494
H       -2.23230690       9.46213998      -8.86218895
H       -3.14601859      10.96891174      -9.04753215
H       -2.74269684      12.23948763      -3.16715951
H       -3.62488215      10.72369729      -2.87300932
H       -4.43321937      12.09750837      -3.63793019
O        4.08977080       2.46803836       1.46969123
C        5.04445629       1.70589750       1.32956977
N        4.88461593       0.33739608       1.42674029
N        3.60317670      -0.12600291       1.75370527
C        3.29602830      -1.45558492       1.53813900
O        4.15778409      -2.26954879       1.20190236
C        1.84003155      -1.84003155       1.84003155
C        1.54945371      -3.29182627       1.46878951
C        1.48235867      -1.56733478       3.29961064
C        6.40965662       2.24624439       1.06893969
C        7.57405042       1.47053227       1.11545006
C        8.83027805       2.07241520       0.94956309
C        8.94211874       3.45498687       0.74091209
C        7.76987429       4.21872788       0.66094857
C        6.51966604       3.62248609       0.82881787
C       10.29296616       4.12153908       0.60899424
N       10.53747793       5.07152918       1.69322489
N       10.18400701       6.36644296       1.51451222
C       10.46775401       6.95419295       2.68369239
C       10.15737315       8.38988934       2.88979734
C       11.05844083       6.03859840       3.57557202
Br      11.63495201       6.43863726       5.31266060
C       11.11164310       4.82931407       2.92105030
C       11.61430727       3.50162439       3.34840919
H        5.58350668      -0.36564744       1.20585341
H        2.87484462       0.59136705       1.77865837
H        1.79426956      -3.49669479       0.41994056
H        0.49244417      -3.54280515       1.61613965
H        2.14314846      -3.97951310       2.08165983
H        1.60572399      -0.51188427       3.56819035
H        2.12644342      -2.14744456       3.97063332
H        0.44258464      -1.83796741       3.51688141
H        7.54178509       0.40323927       1.30863991
H        9.72197638       1.45041910       1.00526219
H        7.82306849       5.29504337       0.49570487
H        5.62924119       4.24866119       0.79240912
H       10.35566953       4.66850710      -0.33925361
H       11.10782104       3.39048680       0.61459139
H        9.58256857       8.53252090       3.81068625
H        9.56315117       8.79441328       2.06352004
H       11.07993984       8.97418087       2.96163921
H       12.29281654       3.07886602       2.60107444
H       10.78261556       2.80683410       3.49978866
H       12.17078950       3.56639423       4.28840228
C       -0.00445707       0.01189536      -1.78238275
H       -0.66409135       0.67374010      -2.43557963
H        0.65740317      -0.63156657      -2.45157240
C       -0.90989263      -0.90692880      -0.91072765
C        0.90977584       0.90977584      -0.90977584
C       -0.00465871       1.77757030       0.00794375
H       -0.66225468       2.44313916      -0.64384735
H        0.64322798       2.43503045       0.67728295
C       -1.78241447       0.00034974      -0.00472694
H       -2.45427497      -0.65498947       0.64260836
H       -2.43311707       0.67328779      -0.65473579
C       -0.91132561       0.90220522       0.91563759
C       -0.01476271      -0.02253852       1.78660255
H       -0.67934791      -0.69751639       2.42135241
H        0.63392994       0.61504881       2.47327442
C        0.01484550      -1.77751727      -0.01636693
H        0.67870853      -2.42144646      -0.68295456
H       -0.62264859      -2.45592969       0.64226336
C        1.78714474       0.01002794       0.00389507
H        2.44202412       0.67113390       0.66197326
H        2.45385902      -0.65136977      -0.64189061
C        0.91606151      -0.90478549       0.90901405
