190
Properties=species:S:1:pos:R:3 pbc="F F F"
C        1.79162849       1.79162849      -1.79162849
C        1.39282746       2.08812139      -3.09233890
C        2.19983552       2.89517002      -3.89923089
C        3.41134695       3.41455355      -3.41298601
C        3.79544328       3.09946264      -2.09730162
C        2.98996290       2.29187145      -1.29033519
C        4.26425954       4.30613884      -4.30599154
H        3.77733793       4.35474105      -5.28594914
S        5.91476520       3.55739604      -4.59500442
C        6.55688077       4.77724057      -5.80973588
H        7.64283357       4.61373180      -5.83630796
C        6.00970887       4.49097930      -7.20877761
C        6.62736306       3.50114612      -7.99579070
C        6.14763654       3.19280326      -9.27163855
C        5.03868226       3.86674659      -9.77470781
Br       4.38187781       3.44671821     -11.49693791
C        4.40724137       4.84715447      -9.01622060
C        4.89006073       5.15693028      -7.74235162
C        6.31686951       6.18800312      -5.32156172
S        7.32328129       7.45358743      -5.88371500
C        6.43969959       8.62586793      -5.03138718
N        6.78178540       9.92086045      -5.12454313
C        5.98120993      10.70822486      -4.40590566
N        4.94443786      10.33721043      -3.64088139
C        4.63961744       9.02978004      -3.56130622
N        3.56291333       8.70916217      -2.74115569
C        5.40031362       8.09008028      -4.28583931
C        5.34058230       6.64692393      -4.44496749
C        4.36137947       5.73871880      -3.74136197
H        0.46047177       1.69471333      -3.48931339
H        1.87314213       3.11005672      -4.91497641
H        4.73574748       3.46886508      -1.69195971
H        3.31002372       2.05585163      -0.27894231
H        7.49018610       2.95643896      -7.61499191
H        6.64310956       2.42544032      -9.86012999
H        3.54100518       5.37733622      -9.40414960
H        4.37417489       5.93048609      -7.17810218
H        6.19405267      11.77207252      -4.44099830
H        3.30594393       9.53003799      -2.20028896
H        3.70026227       7.87518468      -2.18747980
H        4.64202759       5.71803178      -2.68020040
H        3.35994764       6.18520503      -3.79048444
C       -1.79162849      -1.79162849      -1.79162849
C       -3.15196960      -1.51680624      -1.90451190
C       -3.95886766      -2.32379675      -2.71157202
C       -3.41333552      -3.41120501      -3.41434599
C       -2.03757539      -3.67169302      -3.28293912
C       -1.23038379      -2.86625921      -2.47552654
C       -4.31031191      -4.26474586      -4.30133215
H       -5.33430031      -3.89149385      -4.19223396
S       -4.33944282      -6.00590340      -3.72181944
C       -5.61381122      -6.65437307      -4.87567293
H       -5.50925437      -7.74719602      -4.83642294
C       -7.01950509      -6.30437831      -4.38558238
C       -7.61940077      -7.10729638      -3.39760274
C       -8.89388384      -6.81202929      -2.90616522
C       -9.58285921      -5.70482681      -3.39245064
Br     -11.30376127      -5.29752220      -2.72425046
C       -9.01148309      -4.89254406      -4.36658929
C       -7.73880115      -5.19094690      -4.85959457
C       -5.31868539      -6.21556093      -6.29218803
S       -5.91601800      -7.14409596      -7.60046976
C       -5.30002153      -6.05211197      -8.74482119
N       -5.50588432      -6.26727274     -10.05403192
C       -4.96909368      -5.31238284     -10.81386394
N       -4.27745741      -4.23824613     -10.40682614
C       -4.07973731      -4.06274916      -9.08821722
N       -3.34355759      -2.93761629      -8.73205731
C       -4.60892556      -4.99462668      -8.17268097
C       -4.60613945      -5.10275328      -6.72358100
C       -3.90739646      -4.14796076      -5.78610303
H       -3.59502209      -0.68193002      -1.36754637
H       -5.02083674      -2.09582069      -2.78151784
H       -1.58267244      -4.51593429      -3.79796554
H       -0.17096578      -3.09036282      -2.38348906
H       -7.09148752      -7.97207655      -2.99805290
H       -9.33585759      -7.44843604      -2.14438624
H       -9.54512040      -4.02671057      -4.75066002
H       -7.32359608      -4.53652519      -5.62264189
H       -5.10430504      -5.41700412     -11.88581432
H       -2.93020304      -2.53681210      -9.56925573
H       -2.68634988      -3.09556564      -7.98101122
H       -2.82766499      -4.30518991      -5.90740487
H       -4.11060372      -3.11817767      -6.10685572
C       -1.79162849       1.79162849       1.79162849
C       -1.25562161       2.93031691       2.38734923
C       -2.06269276       3.73728339       3.19426028
C       -3.41276156       3.41465647       3.41146849
C       -3.93177782       2.25829473       2.80213498
C       -3.12550071       1.45038747       1.99628136
C       -4.27602164       4.31988103       4.28048725
H       -3.63127236       5.11346498       4.67329077
S       -4.91271493       3.41171528       5.74273545
C       -5.71810742       4.81925525       6.60649455
H       -6.39181095       4.35901534       7.34204705
C       -4.68728341       5.64716765       7.37501473
C       -4.26846783       5.21024673       8.64558533
C       -3.31344461       5.92483190       9.37380183
C       -2.75959556       7.08340718       8.83713393
Br      -1.46146385       8.04831441       9.81575568
C       -3.15330965       7.53549272       7.58181407
C       -4.11078113       6.82212525       6.85643625
C       -6.56699739       5.61692974       5.64250722
S       -7.87823016       6.53903638       6.24331719
C       -8.23835832       7.15536578       4.70323061
N       -9.24391449       8.03199267       4.55128182
C       -9.38488603       8.42519797       3.28525645
N       -8.66445826       8.03373457       2.22433685
C       -7.67367217       7.14412447       2.41290705
N       -6.97342930       6.76852499       1.27127691
C       -7.40910683       6.65795900       3.70916738
C       -6.43322981       5.73524001       4.26400390
C       -5.40630886       4.97528568       3.45986571
H       -0.21295687       3.19703097       2.23451065
H       -1.62296647       4.61955197       3.65565682
H       -4.96828861       1.96656010       2.96172355
H       -3.54612118       0.55774225       1.54095424
H       -4.68347486       4.30063632       9.07750580
H       -3.00789195       5.56741770      10.35337022
H       -2.72462893       8.44011698       7.15774508
H       -4.39740115       7.20552933       5.87983269
H      -10.17553170       9.14259962       3.08899217
H       -7.46768928       7.11476102       0.45382056
H       -6.74652368       5.78471253       1.23169053
H       -5.94632640       4.22040518       2.87352820
H       -4.94109578       5.65761174       2.73692958
C        1.79162849      -1.79162849       1.79162849
C        2.67907403      -2.68970071       1.20451301
C        3.48607131      -3.49659607       2.01156905
C        3.41480690      -3.41190294       3.41217669
C        2.50914198      -2.49995695       3.98310861
C        1.70122167      -1.69375430       3.17719357
C        4.31755318      -4.28930885       4.26952789
H        4.88428131      -4.93943884       3.59430797
S        3.32536941      -5.40557190       5.33622434
C        4.70144719      -6.39054865       6.05186139
H        4.27144347      -6.89166582       6.92976404
C        5.15874731      -7.47515704       5.07556144
C        4.43712338      -8.68140898       5.00576753
C        4.80749280      -9.69114836       4.11343718
C        5.90172855      -9.50454546       3.27386266
Br       6.40087940     -10.86492289       2.05973165
C        6.63025659      -8.32034249       3.32001736
C        6.26108308      -7.31317577       4.21508378
C        5.80717053      -5.48111455       6.53814927
S        6.86323486      -6.02772492       7.76962395
C        7.79133584      -4.60827983       7.69733903
N        8.86810143      -4.47145643       8.48763111
C        9.48991171      -3.30756465       8.29786409
N        9.14415804      -2.32622852       7.45214313
C        8.05171407      -2.49320585       6.68578377
N        7.73902149      -1.43389417       5.84031553
C        7.30986149      -3.68808696       6.77828475
C        6.12668398      -4.19889138       6.10689837
C        5.31952154      -3.44143146       5.08050724
H        2.74851119      -2.77308053       0.12290677
H        4.16870225      -4.19638932       1.53308369
H        2.41318154      -2.41900052       5.06439020
H        1.00364859      -1.00091486       3.64025421
H        3.57218008      -8.84145883       5.64797806
H        4.23487071     -10.61398929       4.07981987
H        7.48626626      -8.16915093       2.66707380
H        6.85438466      -6.40171357       4.22666493
H       10.37663917      -3.13170884       8.89877548
H        8.31212899      -0.63318560       6.09095628
H        6.75072504      -1.23258293       5.77961878
H        4.80135027      -2.63032707       5.60858243
H        6.00420853      -2.96274234       4.36868623
C       -0.00445707       0.01189536      -1.78238275
H       -0.66409135       0.67374010      -2.43557963
H        0.65740317      -0.63156657      -2.45157240
C       -0.90989263      -0.90692880      -0.91072765
C        0.90977584       0.90977584      -0.90977584
C       -0.00465871       1.77757030       0.00794375
H       -0.66225468       2.44313916      -0.64384735
H        0.64322798       2.43503045       0.67728295
C       -1.78241447       0.00034974      -0.00472694
H       -2.45427497      -0.65498947       0.64260836
H       -2.43311707       0.67328779      -0.65473579
C       -0.91132561       0.90220522       0.91563759
C       -0.01476271      -0.02253852       1.78660255
H       -0.67934791      -0.69751639       2.42135241
H        0.63392994       0.61504881       2.47327442
C        0.01484550      -1.77751727      -0.01636693
H        0.67870853      -2.42144646      -0.68295456
H       -0.62264859      -2.45592969       0.64226336
C        1.78714474       0.01002794       0.00389507
H        2.44202412       0.67113390       0.66197326
H        2.45385902      -0.65136977      -0.64189061
C        0.91606151      -0.90478549       0.90901405
