177
Properties=species:S:1:pos:R:3 pbc="F F F"
C        0.00000000       0.00000000       0.00000000
C        0.88172447       0.88172447      -0.88172447
C        0.48292343       1.17821736      -2.18243488
C        1.28993149       1.98526600      -2.98932687
C        2.50144293       2.50464953      -2.50308199
C        2.88553925       2.18955861      -1.18739760
C        2.08005887       1.38196742      -0.38043117
C        3.35435551       3.39623482      -3.39608752
H        2.86743391       3.44483702      -4.37604511
S        5.00486118       2.64749201      -3.68510039
C        5.64697675       3.86733655      -4.89983186
H        6.73292955       3.70382777      -4.92640394
C        5.09980485       3.58107528      -6.29887358
C        5.71745904       2.59124210      -7.08588668
C        5.23773251       2.28289923      -8.36173452
C        4.12877824       2.95684257      -8.86480379
C        3.49733734       3.93725045      -8.10631658
C        3.98015671       4.24702625      -6.83244760
C        5.40696549       5.27809909      -4.41165770
S        6.41337727       6.54368341      -4.97381097
C        5.52979557       7.71596390      -4.12148316
N        5.87188138       9.01095642      -4.21463910
C        5.07130590       9.79832084      -3.49600163
N        4.03453384       9.42730640      -2.73097737
C        3.72971341       8.11987602      -2.65140219
N        2.65300930       7.79925815      -1.83125167
C        4.49040960       7.18017625      -3.37593528
C        4.43067828       5.73701991      -3.53506347
C        3.45147545       4.82881478      -2.83145795
H       -0.44943226       0.78480930      -2.57940937
H        0.96323810       2.20015269      -4.00507239
H        3.82584345       2.55896105      -0.78205568
H        2.40011970       1.14594761       0.63096171
H        6.58028208       2.04653493      -6.70508788
H        5.73320554       1.51553630      -8.95022596
H        2.63110115       4.46743219      -8.49424557
H        3.46427086       5.02058207      -6.26819816
H        5.28414864      10.86216849      -3.53109427
H        2.39603990       8.62013396      -1.29038494
H        2.79035824       6.96528065      -1.27757577
H        3.73212356       4.80812776      -1.77029638
H        2.45004361       5.27530101      -2.88058042
C        3.62848131       2.63690121     -10.17665001
C        3.20948263       2.36895032     -11.27532122
Br       2.53199720       1.93569639     -13.05177965
C       -0.88172447      -0.88172447      -0.88172447
C       -2.12399636      -1.30397214      -0.41560718
C       -2.93094681      -2.11089496      -1.22268258
C       -2.50459436      -2.50139504      -2.50318505
C       -1.24501759      -2.06556525      -2.95191263
C       -0.43717263      -1.25986457      -2.14542026
C       -3.40999702      -3.36630274      -3.37037809
H       -4.29955715      -3.60943268      -2.77932621
S       -2.60625962      -4.96906655      -3.76212741
C       -4.01375963      -5.77408940      -4.62629612
H       -3.57196811      -6.61845967      -5.17273348
C       -5.01474869      -6.34440396      -3.62060106
C       -4.75872700      -7.59909384      -3.03676698
C       -5.63594289      -8.14857338      -2.09785000
C       -6.77848712      -7.44642043      -1.72551704
C       -7.05356965      -6.20267322      -2.28466150
C       -6.17762607      -5.65614706      -3.22585743
C       -4.61804864      -4.83396316      -5.64471048
S       -5.46822323      -5.47974986      -6.98289856
C       -5.87861698      -3.93475982      -7.55386583
N       -6.63277321      -3.80733537      -8.65736832
C       -6.87284281      -2.53164288      -8.96114269
N       -6.44152498      -1.44252029      -8.30877235
C       -5.67701254      -1.60901724      -7.21496185
N       -5.25081112      -0.44065405      -6.59205395
C       -5.36011787      -2.91038235      -6.77602091
C       -4.60058159      -3.44411460      -5.65806547
C       -3.86167214      -2.61188056      -4.63819548
H       -2.47223020      -1.01544986       0.57289364
H       -3.89581190      -2.43527206      -0.83737922
H       -0.87334036      -2.36252412      -3.93099571
H        0.53546724      -0.94045154      -2.51012129
H       -3.86474797      -8.15870734      -3.30844958
H       -5.41653673      -9.11973808      -1.66269299
H       -7.94477438      -5.64984794      -1.99815660
H       -6.42489568      -4.68338218      -3.64477323
H       -7.48544094      -2.35274733      -9.83922314
H       -5.45828006       0.34882551      -7.19710425
H       -4.29493404      -0.47217964      -6.26610098
H       -2.99981972      -2.16229702      -5.14843096
H       -4.50445567      -1.78085814      -4.32061122
C       -7.68099030      -8.00735083      -0.75369140
C       -8.43683672      -8.47713003       0.06021259
Br      -9.65897645      -9.23672327       1.37622648
C       -0.88172447       0.88172447       0.88172447
C       -1.61645224       1.91713995       0.30998348
C       -2.42346507       2.72403082       1.11702846
C       -2.50490292       2.50227220       2.50199933
C       -1.75176018       1.45275110       3.05798419
C       -0.94388610       0.64634490       2.25222646
C       -3.40534022       3.38415489       3.35718274
H       -3.83650216       4.14924109       2.70257279
S       -2.42847642       4.28808623       4.62089094
C       -3.77305228       5.33841150       5.30268137
H       -3.39083634       5.70859878       6.26372614
C       -4.02436750       6.55057259       4.40481362
C       -3.19011424       7.67739503       4.52707854
C       -3.37095953       8.79864041       3.71276633
C       -4.38560189       8.80469591       2.76012679
C       -5.22220479       7.70262274       2.61607683
C       -5.04258556       6.58379314       3.43325185
C       -5.00287389       4.50623267       5.58761572
S       -6.12447435       5.04142679       6.76497050
C       -7.16845759       3.73796513       6.46081990
N       -8.32886662       3.63959794       7.12901235
C       -9.03361653       2.56864900       6.76336284
N       -8.69566161       1.64007120       5.85708480
C       -7.51937795       1.76445624       5.21715743
N       -7.22145816       0.76203639       4.30002457
C       -6.68285144       2.86280875       5.50086094
C       -5.39443671       3.30950217       4.99882277
C       -4.56008355       2.57199555       3.97966908
H       -1.56615140       2.10767533      -0.75904031
H       -2.98502143       3.53188736       0.65155440
H       -1.77553533       1.26191676       4.12940810
H       -0.36529698      -0.15472490       2.70453351
H       -2.38471062       7.68703367       5.26016061
H       -2.71440468       9.65675636       3.82780676
H       -6.01683122       7.70183781       1.87410988
H       -5.71629155       5.74112759       3.29563194
H       -9.98997959       2.42972563       7.25770619
H       -7.88944053       0.00469081       4.41242746
H       -6.25525236       0.46664019       4.31132211
H       -4.17687218       1.66620590       4.46746962
H       -5.20951483       2.23474441       3.16166580
C       -4.57038127       9.95620455       1.91544671
C       -4.72513399      10.92059303       1.20802714
Br      -4.97535607      12.47992764       0.06418953
C        0.88172447      -0.88172447       0.88172447
C        1.40305406      -0.37238121       2.06814040
C        2.20996994      -1.17945454       2.87509988
C        2.50148530      -2.50299864       2.50469050
C        1.96656579      -2.99517493       1.30075475
C        1.16078161      -2.18880612       0.49286974
C        3.36868395      -3.36790105       3.41009285
H        3.69746814      -2.74322640       4.24762150
S        4.89591817      -3.89940984       2.54212557
C        5.73360767      -4.72941408       3.95112340
H        6.51791934      -5.34936564       3.49587628
C        6.41850444      -3.70476689       4.85648239
C        7.68656833      -3.21231331       4.49570617
C        8.33953985      -2.25995118       5.28287524
C        7.72902311      -1.78250890       6.43889258
C        6.47439575      -2.24993562       6.81657299
C        5.82431519      -3.20467375       6.03064161
C        4.77535545      -5.65414222       4.66722461
S        5.39432133      -6.97846758       5.55808274
C        3.84688837      -7.43204826       6.08830600
N        3.70274942      -8.48169113       6.91303636
C        2.42858900      -8.69467590       7.24236347
N        1.35415166      -8.00374566       6.83492030
C        1.53606583      -6.96668062       5.99824517
N        0.38130051      -6.30008978       5.60212882
C        2.83884140      -6.62485123       5.58282850
C        3.38840809      -5.58538645       4.72896711
C        2.57232860      -4.56088953       3.97853004
H        1.19204228       0.64965064       2.37239477
H        2.61262748      -0.76044256       3.79539315
H        2.18511571      -4.00964661       0.97209787
H        0.76376823      -2.58802033      -0.43668297
H        8.17555456      -3.56691520       3.58943514
H        9.31884322      -1.89666592       4.98345866
H        5.99284462      -1.88112358       7.71881072
H        4.84599762      -3.55010629       6.35694718
H        2.23740226      -9.52456334       7.91544581
H       -0.42722284      -6.84422363       5.88955802
H        0.37397672      -6.03100979       4.62822815
H        2.04400032      -5.09112232       3.17542505
H        1.80042837      -4.15848423       4.64701243
C        8.39677304      -0.79660801       7.24865147
C        8.95601360       0.02908399       7.92682455
Br       9.86025830       1.36415811       9.02337306
