198
Properties=species:S:1:pos:R:3 pbc="F F F"
C        1.79162849       1.79162849      -1.79162849
C        1.39282746       2.08812139      -3.09233890
C        2.19983552       2.89517002      -3.89923089
C        3.41134695       3.41455355      -3.41298601
C        3.79544328       3.09946264      -2.09730162
C        2.98996290       2.29187145      -1.29033519
C        4.26425954       4.30613884      -4.30599154
H        3.77733793       4.35474105      -5.28594914
S        5.91476520       3.55739604      -4.59500442
C        6.55688077       4.77724057      -5.80973588
H        7.64283357       4.61373180      -5.83630796
C        6.00970887       4.49097930      -7.20877761
C        6.62736306       3.50114612      -7.99579070
C        6.14763654       3.19280326      -9.27163855
C        5.03868226       3.86674659      -9.77470781
C        4.40724137       4.84715447      -9.01622060
C        4.89006073       5.15693028      -7.74235162
C        6.31686951       6.18800312      -5.32156172
S        7.32328129       7.45358743      -5.88371500
C        6.43969959       8.62586793      -5.03138718
N        6.78178540       9.92086045      -5.12454313
C        5.98120993      10.70822486      -4.40590566
N        4.94443786      10.33721043      -3.64088139
C        4.63961744       9.02978004      -3.56130622
N        3.56291333       8.70916217      -2.74115569
C        5.40031362       8.09008028      -4.28583931
C        5.34058230       6.64692393      -4.44496749
C        4.36137947       5.73871880      -3.74136197
H        0.46047177       1.69471333      -3.48931339
H        1.87314213       3.11005672      -4.91497641
H        4.73574748       3.46886508      -1.69195971
H        3.31002372       2.05585163      -0.27894231
H        7.49018610       2.95643896      -7.61499191
H        6.64310956       2.42544032      -9.86012999
H        3.54100518       5.37733622      -9.40414960
H        4.37417489       5.93048609      -7.17810218
H        6.19405267      11.77207252      -4.44099830
H        3.30594393       9.53003799      -2.20028896
H        3.70026227       7.87518468      -2.18747980
H        4.64202759       5.71803178      -2.68020040
H        3.35994764       6.18520503      -3.79048444
C        4.53838533       3.54680523     -11.08655403
C        4.11938665       3.27885434     -12.18522525
Br       3.44190123       2.84560042     -13.96168367
C       -1.79162849      -1.79162849      -1.79162849
C       -3.16693405      -1.57730962      -1.82904409
C       -3.97383563      -2.38429253      -2.63610827
C       -3.41348106      -3.41116355      -3.41424190
C       -2.02255854      -3.61128749      -3.35836151
C       -1.21527615      -2.80585992      -2.55103347
C       -4.31196187      -4.26525531      -4.29917275
H       -5.34552662      -3.94676703      -4.12573446
S       -4.23385898      -6.03044362      -3.80286305
C       -5.53102674      -6.68578183      -4.92704865
H       -5.37495115      -7.77300575      -4.94491644
C       -6.92618115      -6.42614011      -4.35714452
C       -7.44087726      -7.30107605      -3.38234657
C       -8.70254595      -7.08982906      -2.81970333
C       -9.46379604      -5.99580466      -3.22053596
C       -8.97732256      -5.11352000      -4.17977388
C       -7.71738295      -5.32791047      -4.74404922
C       -5.32431138      -6.16917407      -6.33294891
S       -5.94052845      -7.06454092      -7.65551435
C       -5.43043609      -5.89326536      -8.77325325
N       -5.68863843      -6.05805506     -10.08049548
C       -5.23293411      -5.04490885     -10.81749749
N       -4.57236302      -3.95862120     -10.39154546
C       -4.32002608      -3.83422684      -9.07645078
N       -3.61976920      -2.69260263      -8.70085936
C       -4.76174877      -4.83115291      -8.18333153
C       -4.68473617      -5.00503875      -6.74269881
C       -3.98626118      -4.06170078      -5.79349828
H       -3.62143814      -0.78995099      -1.23310936
H       -5.04723058      -2.20440818      -2.64653650
H       -1.55475336      -4.40842516      -3.93339375
H       -0.14354695      -2.98301042      -2.51826029
H       -6.85554768      -8.15695246      -3.04911682
H       -9.07808147      -7.78074323      -2.06985518
H       -9.56767151      -4.25757269      -4.49724679
H       -7.36944032      -4.62024299      -5.49307986
H       -5.41433780      -5.10684942     -11.88593627
H       -3.26564536      -2.23470263      -9.53592289
H       -2.92087470      -2.85305141      -7.98900063
H       -2.90751696      -4.16141602      -5.97132679
H       -4.25135655      -3.02925024      -6.05503032
C      -10.76158173      -5.77214685      -2.63801602
C      -11.84847725      -5.58483343      -2.15015557
Br     -13.60589537      -5.28196347      -1.36132648
C       -1.79162849       1.79162849       1.79162849
C       -1.23804956       2.44667886       2.88855933
C       -2.04508836       3.25369911       3.69544896
C       -3.41177869       3.41478701       3.41232082
C       -3.94981071       2.74124941       2.30114742
C       -3.14412136       1.93341127       1.49463690
C       -4.26614203       4.31384440       4.29640349
H       -3.63082959       4.67478575       5.11241278
S       -5.61858245       3.35947032       5.08911289
C       -6.28723654       4.68490793       6.17171275
H       -7.28271069       4.33404594       6.47611671
C       -5.44017859       4.83296714       7.43632006
C       -5.65825870       3.95314655       8.51289464
C       -4.89336562       4.03941465       9.67929807
C       -3.89497201       5.00369063       9.78147402
C       -3.65628502       5.88358655       8.73074487
C       -4.42409652       5.79856971       7.56667640
C       -6.47127931       5.96568623       5.38946881
S       -7.61916681       7.11800916       5.92340776
C       -7.20080886       8.20637441       4.68977142
N       -7.80720859       9.40212277       4.61785762
C       -7.35528911      10.13791286       3.60213849
N       -6.42082351       9.79966270       2.70204347
C       -5.84467904       8.58825219       2.79777246
N       -4.89378364       8.29291600       1.82653155
C       -6.22249626       7.71559567       3.83814128
C       -5.80537598       6.38386648       4.24323126
C       -4.79150831       5.53565566       3.51429628
H       -0.18350653       2.33394569       3.12704627
H       -1.59438824       3.75214729       4.55163973
H       -5.00799672       2.82765455       2.06092099
H       -3.58283677       1.41698906       0.64499183
H       -6.42843727       3.18587890       8.44730080
H       -5.08233220       3.34930644      10.49704123
H       -2.87819906       6.63923655       8.80505538
H       -4.21256028       6.50392260       6.76628028
H       -7.79594595      11.12333797       3.48783956
H       -4.93621366       9.00100176       1.09905546
H       -4.93630261       7.34365438       1.48296975
H       -5.25108717       5.22090836       2.56826424
H       -3.92765278       6.15868127       3.24930306
C       -3.10111007       5.09092272      10.97971180
C       -2.43625069       5.16397960      11.98323594
Br      -1.36122931       5.28210640      13.60584960
C        1.79162849      -1.79162849       1.79162849
C        2.49009434      -2.85583719       1.22735623
C        3.29711060      -3.66272741       2.03439843
C        3.41479944      -3.41224188       3.41184521
C        2.69788340      -2.33386649       3.96045765
C        1.89002475      -1.52741267       3.15473212
C        4.31462251      -4.29513646       4.26663096
H        4.71378645      -5.08410974       3.62013192
S        3.34685461      -5.14848441       5.57182664
C        4.68293290      -6.21364116       6.24728316
H        4.31448173      -6.55369125       7.22470035
C        4.88692427      -7.45077934       5.37176217
C        4.03089586      -8.55542570       5.53797832
C        4.16835999      -9.69824607       4.74547229
C        5.16077492      -9.74839231       3.77096943
C        6.01810990      -8.66901868       3.58348786
C        5.88188257      -7.52857722       4.37888284
C        5.93702912      -5.40343142       6.48597382
S        7.07288436      -5.93768483       7.65001454
C        8.13832985      -4.66526935       7.29335550
N        9.31547446      -4.57843915       7.93327537
C       10.03531240      -3.53209618       7.52793186
N        9.69756611      -2.61640594       6.60855764
C        8.50461882      -2.72825505       5.99782983
N        8.20827755      -1.73990738       5.06504626
C        7.65060671      -3.80081767       6.32480882
C        6.34156819      -4.22921790       5.86168764
C        5.50088245      -3.49575681       4.84482098
H        2.41137693      -3.06882096       0.16430060
H        3.82994111      -4.49321365       1.57502050
H        2.75014944      -2.11992974       5.02649308
H        1.33972134      -0.70361556       3.60148076
H        3.24229243      -8.53057057       6.28875396
H        3.49573013     -10.53850701       4.89444274
H        6.79554410      -8.70267573       2.82427116
H        6.57080107      -6.70464775       4.20731433
H       11.00547317      -3.40395870       7.99769161
H        8.89524979      -0.99558621       5.14543487
H        7.24935732      -1.42251816       5.09105126
H        5.14898286      -2.57093273       5.32034417
H        6.13892594      -3.19151153       4.00519964
C        5.30081265     -10.92222266       2.94870928
C        5.41809425     -11.90530558       2.26006641
Br       5.60772867     -13.49486752       1.14658913
C       -0.00445707       0.01189536      -1.78238275
H       -0.66409135       0.67374010      -2.43557963
H        0.65740317      -0.63156657      -2.45157240
C       -0.90989263      -0.90692880      -0.91072765
C        0.90977584       0.90977584      -0.90977584
C       -0.00465871       1.77757030       0.00794375
H       -0.66225468       2.44313916      -0.64384735
H        0.64322798       2.43503045       0.67728295
C       -1.78241447       0.00034974      -0.00472694
H       -2.45427497      -0.65498947       0.64260836
H       -2.43311707       0.67328779      -0.65473579
C       -0.91132561       0.90220522       0.91563759
C       -0.01476271      -0.02253852       1.78660255
H       -0.67934791      -0.69751639       2.42135241
H        0.63392994       0.61504881       2.47327442
C        0.01484550      -1.77751727      -0.01636693
H        0.67870853      -2.42144646      -0.68295456
H       -0.62264859      -2.45592969       0.64226336
C        1.78714474       0.01002794       0.00389507
H        2.44202412       0.67113390       0.66197326
H        2.45385902      -0.65136977      -0.64189061
C        0.91606151      -0.90478549       0.90901405
