130
Properties=species:S:1:pos:R:3 pbc="F F F"
S        5.85159698       6.02299770      -4.95381761
C        4.62651787       5.51155381      -3.93470184
N        4.28442727       4.19184371      -4.04871394
C        3.40027106       3.42113089      -3.29033319
C        3.26091987       2.08231283      -3.65134584
C        2.44004500       1.25400814      -2.88916005
C        1.78792483       1.78792483      -1.78792483
C        1.96546240       3.13470655      -1.50580141
N        2.75016015       3.97130950      -2.23844165
N        3.91909060       6.26202359      -3.01620078
C        4.00721275       7.62541992      -2.74918203
O        4.79205763       8.40355551      -3.28188978
C        3.06523963       8.20786393      -1.76270852
C        2.45899267       7.47991423      -0.74949976
N        1.61299766       8.01792501       0.16797733
C        1.38220897       9.35185982       0.07766272
C        1.95241976      10.16459698      -0.88813096
Br       1.59066553      12.01404152      -0.93748312
C        2.80438680       9.58554895      -1.82105156
H        4.80418365       3.71360721      -4.77501657
H        3.78510833       1.67212539      -4.50921457
H        2.32938007       0.20647851      -3.15652978
H        1.47469052       3.59551959      -0.65207353
H        3.20677920       5.71657077      -2.53972260
H        2.64322109       6.42016393      -0.60296611
H        0.71126313       9.75499829       0.83157307
H        3.27494972      10.19718422      -2.58829264
S       -4.94648966      -5.93109272      -5.95082992
C       -3.87377770      -4.74746097      -5.45153486
N       -4.05689060      -4.29439300      -4.17370132
C       -3.28944532      -3.40999550      -3.41229431
C       -3.73558633      -3.13883235      -2.12015987
C       -2.97360244      -2.31305996      -1.29655079
C       -1.78792483      -1.78792483      -1.78792483
C       -1.42265356      -2.09189055      -3.09142625
N       -2.15178797      -2.88452441      -3.92359892
N       -2.84948260      -4.17109286      -6.17673951
C       -2.49092014      -4.38637465      -7.50451991
O       -3.02559633      -5.18919803      -8.26270856
C       -1.39279405      -3.56850480      -8.07451322
C       -0.39090212      -2.98248736      -7.31501719
N        0.62776149      -2.25144642      -7.83926041
C        0.65419857      -2.12111565      -9.18948899
C       -0.29147479      -2.68150965     -10.03216326
Br      -0.17608830      -2.46485018     -11.90125168
C       -1.32897759      -3.41410099      -9.46790874
H       -4.85525052      -4.71987794      -3.71767897
H       -4.66009780      -3.56445873      -1.74189176
H       -3.30753800      -2.10037945      -0.28447091
H       -0.50119093      -1.70319409      -3.51789861
H       -2.35937425      -3.45469450      -5.64900382
H       -0.33762964      -3.09239149      -6.23633000
H        1.48647575      -1.54140023      -9.57976387
H       -2.08412540      -3.87406609     -10.10223509
S       -5.05997686       5.56281816       6.20561728
C       -4.22768544       4.24152725       5.60356083
N       -4.03799828       4.23829399       4.24869264
C       -3.30329675       3.36493641       3.44350198
C       -3.29552577       3.62472321       2.07432957
C       -2.52745892       2.82191173       1.23384255
C       -1.78792483       1.78792483       1.78792483
C       -1.86347509       1.58426118       3.15823410
N       -2.61404114       2.34315925       4.00271092
N       -3.73173154       3.16033780       6.30524563
C       -3.84536173       2.87369549       7.66275748
O       -4.39250126       3.58927212       8.49572954
C       -3.28931454       1.59032566       8.15617188
C       -2.26830312       0.89619897       7.52390458
N       -1.74361749      -0.26846435       7.98779220
C       -2.25200807      -0.74680706       9.15120506
C       -3.26022756      -0.11797744       9.86289759
Br      -3.90314671      -0.84152964      11.48057310
C       -3.78655938       1.06545728       9.35897066
H       -4.47103415       5.03131150       3.79046178
H       -3.86974444       4.44410325       1.65260061
H       -2.50761080       3.01941526       0.16536230
H       -1.30011797       0.78637377       3.63579189
H       -3.28679287       2.47816735       5.69811234
H       -1.79427641       1.25606696       6.61600776
H       -1.80470968      -1.67277143       9.50275009
H       -4.57417109       1.58878984       9.89746565
S        6.12952135      -4.99319291       5.70569804
C        5.58063016      -4.06987695       4.42226641
N        4.22218879      -4.03989622       4.26289991
C        3.43417751      -3.29513693       3.38242070
C        2.05506347      -3.48050456       3.45901051
C        1.21972997      -2.71627032       2.64721291
C        1.78792483      -1.78792483       1.78792483
C        3.17056095      -1.67653532       1.75887409
N        4.01261557      -2.41730167       2.52999406
N        6.33165169      -3.35800353       3.50765975
C        7.71632415      -3.27467525       3.39081530
O        8.52532403      -3.81080518       4.14137372
C        8.27785682      -2.50121288       2.25674237
C        7.60163922      -1.47809095       1.60867650
N        8.12445507      -0.75454192       0.58394836
C        9.39219643      -1.05716274       0.20704690
C       10.15250162      -2.04988829       0.80275779
Br      11.91360724      -2.39999940       0.22858352
C        9.58830568      -2.78217215       1.84050949
H        3.73600666      -4.62368119       4.93311957
H        1.62032715      -4.20251636       4.14360479
H        0.14228539      -2.84667028       2.70343270
H        3.65919575      -0.96156616       1.10152172
H        5.75455587      -2.90068219       2.80783450
H        6.60371858      -1.16407477       1.89855778
H        9.78689494      -0.45422894      -0.60643554
H       10.16132339      -3.56392864       2.33517455
C       -0.00445707       0.01189536      -1.78238275
H       -0.66409135       0.67374010      -2.43557963
H        0.65740317      -0.63156657      -2.45157240
C       -0.90989263      -0.90692880      -0.91072765
C        0.90977584       0.90977584      -0.90977584
C       -0.00465871       1.77757030       0.00794375
H       -0.66225468       2.44313916      -0.64384735
H        0.64322798       2.43503045       0.67728295
C       -1.78241447       0.00034974      -0.00472694
H       -2.45427497      -0.65498947       0.64260836
H       -2.43311707       0.67328779      -0.65473579
C       -0.91132561       0.90220522       0.91563759
C       -0.01476271      -0.02253852       1.78660255
H       -0.67934791      -0.69751639       2.42135241
H        0.63392994       0.61504881       2.47327442
C        0.01484550      -1.77751727      -0.01636693
H        0.67870853      -2.42144646      -0.68295456
H       -0.62264859      -2.45592969       0.64226336
C        1.78714474       0.01002794       0.00389507
H        2.44202412       0.67113390       0.66197326
H        2.45385902      -0.65136977      -0.64189061
C        0.91606151      -0.90478549       0.90901405
