109
Properties=species:S:1:pos:R:3 pbc="F F F"
C        0.00000000       0.00000000       0.00000000
S        4.94169296       5.11309368      -4.04391359
C        3.71661384       4.60164978      -3.02479782
N        3.37452324       3.28193969      -3.13880992
C        2.49036703       2.51122686      -2.38042917
C        2.35101584       1.17240881      -2.74144182
C        1.53014098       0.34410412      -1.97925602
C        0.87802080       0.87802080      -0.87802080
C        1.05555838       2.22480253      -0.59589739
N        1.84025613       3.06140548      -1.32853763
N        3.00918657       5.35211957      -2.10629676
C        3.09730872       6.71551589      -1.83927801
O        3.88215361       7.49365149      -2.37198575
C        2.15533561       7.29795990      -0.85280449
C        1.54908865       6.57001021       0.16040426
N        0.70309364       7.10802099       1.07788135
C        0.47230495       8.44195580       0.98756675
C        1.04251574       9.25469295       0.02177306
Br       0.68076150      11.10413750      -0.02757909
C        1.89448278       8.67564493      -0.91114754
H        3.89427963       2.80370319      -3.86511254
H        2.87520431       0.76222137      -3.59931055
H        1.41947605      -0.70342552      -2.24662575
H        0.56478649       2.68561556       0.25783050
H        2.29687518       4.80666674      -1.62981857
H        1.73331707       5.51025991       0.30693792
H       -0.19864089       8.84509426       1.74147710
H        2.36504569       9.28728020      -1.67838861
S       -5.11086899      -4.04349560      -4.94433563
C       -4.59993086      -3.02261539      -3.72051520
N       -3.28135644      -3.13904011      -3.37487631
C       -2.51095444      -2.38037830      -2.49069032
C       -1.17338304      -2.74435142      -2.34713201
C       -0.34522376      -1.98218362      -1.52609374
C       -0.87802080      -0.87802080      -0.87802080
C       -2.22365687      -0.59301134      -1.05959008
N       -3.06013057      -1.32552366      -1.84454501
N       -5.34986893      -2.10051359      -3.01722038
C       -6.71237783      -1.83034618      -3.10937861
O       -7.48988897      -2.36307204      -3.89482984
C       -7.29470229      -0.84010655      -2.17129116
C       -6.56574537       0.17279902      -1.56574825
N       -7.10357063       1.09369515      -0.72335779
C       -8.43829118       1.00724848      -0.49565130
C       -9.25200664       0.04205642      -1.06548541
Br     -11.10245589      -0.00182999      -0.70819221
C       -8.67316788      -0.89439930      -1.91370807
H       -2.80363762      -3.86780722      -3.89165052
H       -0.76402778      -3.60452668      -2.86818177
H        0.70136382      -2.25186576      -1.41217435
H       -2.68356511       0.26306541      -0.57207186
H       -4.80499920      -1.62362170      -2.30473959
H       -5.50518344       0.31625715      -1.74771277
H       -8.84121758       1.76381207       0.17242924
H       -9.28553711      -1.66129001      -2.38388739
S       -4.15259104       4.64844940       5.29765978
C       -3.32310130       3.32627019       4.69368996
N       -3.12813792       3.32756722       3.33956771
C       -2.39370051       2.45448598       2.53383657
C       -2.37957141       2.71956523       1.16572984
C       -1.61135689       1.91703602       0.32510822
C       -0.87802080       0.87802080       0.87802080
C       -0.95971425       0.66932416       2.24721988
N       -1.71061467       1.42785674       3.09172782
N       -2.83410183       2.24043025       5.39307082
C       -2.95414748       1.94895471       6.74900043
O       -3.50174807       2.66341676       7.58262602
C       -2.40502878       0.66151303       7.23955820
C       -1.38426393      -0.03413104       6.60856170
N       -0.86592917      -1.20263065       7.06993475
C       -1.38071693      -1.68350673       8.22948380
C       -2.38925428      -1.05351771       8.93969906
Br      -3.04129675      -1.78084142      10.55202276
C       -2.90900580       0.13391524       8.43835421
H       -3.55629228       4.12404672       2.88275636
H       -2.94894643       3.54281626       0.74497354
H       -1.58656754       2.11861594      -0.74250719
H       -0.40133505      -0.13260935       2.72384585
H       -2.38945263       1.55889442       4.78501344
H       -0.90529841       0.32741225       5.70392840
H       -0.93840080      -2.61257170       8.57914717
H       -3.69667271       0.65822099       8.97582079
S        5.16570129      -4.05809491       4.87490403
C        4.63936109      -3.08321429       3.62048607
N        3.29626853      -3.13385584       3.36514848
C        2.51766943      -2.38215760       2.48219603
C        1.15367663      -2.66564173       2.44554811
C        0.32191874      -1.90276696       1.62881543
C        0.87802080      -0.87802080       0.87802080
C        2.24767649      -0.67136695       0.95721485
N        3.08717230      -1.40747629       1.73555064
N        5.39687615      -2.25745450       2.81327225
C        6.77654875      -2.07220009       2.80335378
O        7.56966490      -2.60543146       3.57269449
C        7.35590805      -1.18203774       1.76815421
C        6.65255404      -0.16268142       1.14345914
N        7.18960776       0.66723885       0.21086436
C        8.49862096       0.47944382      -0.09248314
C        9.28698367      -0.50016043       0.48829153
Br      11.10374060      -0.68742785       0.02130965
C        8.70850743      -1.34252379       1.43024402
H        2.80952835      -3.79644007       3.95712693
H        0.72720575      -3.46332695       3.04620352
H       -0.74451584      -2.10962967       1.59756246
H        2.72644482       0.12098214       0.38710888
H        4.83680847      -1.79061443       2.10593760
H        5.61709385       0.06106720       1.38061241
H        8.90264720       1.16530079      -0.83237014
H        9.30201569      -2.11754818       1.91115063
