113
Properties=species:S:1:pos:R:3 pbc="F F F"
C        0.00000000       0.00000000       0.00000000
C        0.88101980       0.88101980      -0.88101980
C        0.68659318       0.89917383      -2.25714458
C        1.49444534       1.70634929      -3.06996619
C        2.50199227       2.49962684      -2.51975626
C        2.68001661       2.46799011      -1.12653586
C        1.87636906       1.66442775      -0.30941427
N        3.37698208       3.34478519      -3.24103679
C        3.53300016       3.62191004      -4.57767646
S        2.71061554       3.04695278      -5.91209305
N        4.54244536       4.52717644      -4.87279526
C        5.43058478       5.18426978      -4.03052301
O        5.47500852       5.00824134      -2.81685478
C        6.38771512       6.10242560      -4.69288144
C        7.63469602       6.30278056      -4.11136969
N        8.60168201       7.08479292      -4.65443169
C        8.30265918       7.70552667      -5.82030749
C        7.07674956       7.58590034      -6.45644035
Br       6.73529113       8.49495927      -8.07267870
C        6.09815767       6.77750784      -5.88327174
H       -0.08890298       0.29165081      -2.71695823
H        1.28883698       1.67540474      -4.13079015
H        3.45312327       3.07070137      -0.65386715
H        2.03823443       1.65937720       0.76528165
H        4.04933331       3.84310994      -2.65456143
H        4.63904593       4.65882227      -5.87056270
H        7.91028776       5.81943099      -3.17645734
H        9.10090816       8.31791845      -6.23148765
H        5.12404028       6.70195182      -6.35643736
C       -0.88101980      -0.88101980      -0.88101980
C       -0.62686364      -2.24449283      -0.97155512
C       -1.43322565      -3.05699880      -1.78053638
C       -2.49671713      -2.51863890      -2.50601936
C       -2.73740321      -1.13869134      -2.39844803
C       -1.93610890      -0.32206821      -1.59203397
N       -3.36884863      -3.23931399      -3.35464144
C       -3.44265281      -4.55853932      -3.73139452
S       -2.49532732      -5.86649126      -3.30784279
N       -4.47204023      -4.85788224      -4.61249459
C       -5.42904789      -4.03019747      -5.18613221
O       -5.47294482      -2.81641765      -5.01074218
C       -6.39827977      -4.69511922      -6.08962317
C       -6.94419899      -3.96511042      -7.13953685
N       -7.80426885      -4.48552572      -8.05111204
C       -8.14525260      -5.78696604      -7.89627470
C       -7.67227719      -6.58258345      -6.86422960
Br      -8.20671476      -8.38435180      -6.71186254
C       -6.78947302      -6.02970435      -5.93975990
H        0.19487113      -2.69451234      -0.42006485
H       -1.18258470      -4.10828407      -1.80416310
H       -3.55617670      -0.67569566      -2.94581944
H       -2.14544329       0.74257295      -1.52945964
H       -4.08556506      -2.66223595      -3.79920368
H       -4.45054083      -5.83063404      -4.88725603
H       -6.69197907      -2.91839838      -7.29579863
H       -8.82952139      -6.17400322      -8.64678965
H       -6.43789288      -6.63473417      -5.10980241
C       -0.88101980       0.88101980       0.88101980
C       -2.05578655       0.36846294       1.41866210
C       -2.86830710       1.17484492       2.22760881
C       -2.51866676       2.49675528       2.50595334
C       -1.32614274       2.99408559       1.95431424
C       -0.51027320       2.19382317       1.14611472
N       -3.26190222       3.39977932       3.30112252
C       -4.45681368       3.30335709       3.97241589
S       -5.52579443       2.02880177       4.11506517
N       -4.84538110       4.45492209       4.64211387
C       -4.22417222       5.69466286       4.72654249
O       -3.18429605       5.97669084       4.13911775
C       -4.92409276       6.71181954       5.54710985
C       -4.77604242       8.05463050       5.21817335
N       -5.40523379       9.06365042       5.87202241
C       -6.20360501       8.71576781       6.90912053
C       -6.38824774       7.40616795       7.32467455
Br      -7.50803374       7.00674833       8.78814702
C       -5.73437772       6.38507414       6.63948540
H       -2.35703150      -0.65699292       1.21966748
H       -3.76595499       0.71382406       2.61525281
H       -1.01363499       4.01892633       2.14513047
H        0.40599908       2.60632315       0.73200591
H       -2.83772548       4.32586771       3.38341151
H       -5.74926258       4.33911664       5.08005169
H       -4.14454221       8.37097158       4.39066230
H       -6.69765190       9.54656795       7.40609441
H       -5.84698229       5.35920254       6.97624463
C        0.88101980      -0.88101980       0.88101980
C        1.97997442      -1.53107649       0.33186068
C        2.79113383      -2.34204151       1.13758549
C        2.51384563      -2.51310212       2.49442763
C        1.39967131      -1.84528593       3.02958533
C        0.58603847      -1.03376981       2.23040280
N        3.25700018      -3.30839128       3.39741261
C        4.36276696      -4.11186856       3.25795113
S        5.29065439      -4.46373132       1.91527565
N        4.77959018      -4.73966878       4.42315809
C        4.24454618      -4.69633194       5.70449945
O        3.22371412      -4.08066855       5.99572197
C        4.95946355      -5.49466196       6.72889664
C        4.23561661      -6.01951789       7.79371176
N        4.77924381      -6.80024169       8.76142112
C        6.10643288      -7.05320757       8.66885289
C        6.91105303      -6.54945775       7.65857947
Br       8.75529543      -6.93870473       7.60892895
C        6.33344407      -5.75118853       6.67430466
H        2.22222857      -1.41955355      -0.72207607
H        3.63034785      -2.81633137       0.64835265
H        1.14582382      -1.94912060       4.08274738
H       -0.27016331      -0.53058835       2.67190495
H        2.89056431      -3.30506197       4.35137841
H        5.56773344      -5.34922349       4.25147398
H        3.16803908      -5.83862324       7.89951377
H        6.50825701      -7.68692956       9.45512768
H        6.96008542      -5.32573291       5.89661112
