194
Properties=species:S:1:pos:R:3 pbc="F F F"
C        1.79166996       1.79166996      -1.79166996
C        2.98758623       2.29853043      -1.28451406
C        3.79946651       3.09436414      -2.09553251
C        3.40489964       3.39391232      -3.40569555
C        2.20360558       2.87965233      -3.91032378
C        1.39736790       2.07545282      -3.09990221
C        4.30278533       4.23131955      -4.24398133
O        5.51486717       4.09770438      -4.11945144
N        3.65728026       5.14891240      -5.04550831
C        4.24735154       6.03626866      -5.97904668
C        5.53613147       5.82738969      -6.48347108
C        6.07546349       6.69922121      -7.43004622
O        7.32778278       6.39774418      -7.90227000
C        7.63422946       7.13821068      -9.08897608
C        7.25747565       8.59902017      -8.90955483
O        5.83898371       8.73365770      -8.74671389
C        5.34813486       7.81201239      -7.85764632
C        4.05558227       8.02471159      -7.38735553
C        3.50491058       7.14926439      -6.43885867
C        2.13483221       7.40024562      -5.91119432
O        1.41002872       6.43860290      -5.65434484
C        1.62752524       8.77042911      -5.64036398
C        2.47206424       9.80279578      -5.21196199
C        1.94538844      11.06970984      -4.94282729
C        0.57671645      11.29744360      -5.08471202
Br      -0.13166223      13.01027817      -4.71496211
C       -0.27416515      10.26949063      -5.48692155
C        0.25098882       9.00419115      -5.75980502
H        3.29979380       2.07661790      -0.26730711
H        4.73893145       3.48313957      -1.70600749
H        1.89815357       3.07529071      -4.93545944
H        0.47120940       1.66964453      -3.49954544
H        2.65571156       5.28822467      -4.89486189
H        6.12957647       4.96802913      -6.18294694
H        8.70841580       7.04127638      -9.27380694
H        7.09890099       6.68524549      -9.93289449
H        7.54713798       9.17832351      -9.79169976
H        7.75312700       9.03668085      -8.03342111
H        3.49454439       8.87484023      -7.76624433
H        3.53632717       9.63778964      -5.06291701
H        2.60734210      11.86727685      -4.61384243
H       -1.34361602      10.43857533      -5.58471873
H       -0.41755724       8.19982040      -6.06186744
C       -1.79166996      -1.79166996      -1.79166996
C       -2.35383846      -2.95328252      -1.26350974
C       -3.17023488      -3.75240918      -2.06671910
C       -3.40868046      -3.39573999      -3.40008706
C       -2.84317300      -2.22623116      -3.92417752
C       -2.03422883      -1.42293627      -3.11555783
C       -4.29559250      -4.26292130      -4.21957241
O       -5.25830343      -4.79502852      -3.67869104
N       -3.88732770      -4.43975326      -5.52462001
C       -4.55642847      -5.16519320      -6.54104521
C       -5.91701259      -5.48054463      -6.44943502
C       -6.55620673      -6.16416540      -7.48435879
O       -7.89974363      -6.39619728      -7.33185605
C       -8.50975917      -6.78355359      -8.56810347
C       -7.66484544      -7.83687908      -9.26432613
O       -6.39159007      -7.29160491      -9.63616031
C       -5.83564965      -6.57393483      -8.60820909
C       -4.48778459      -6.24929141      -8.73057339
C       -3.83954956      -5.55769586      -7.69578823
C       -2.38848723      -5.24327640      -7.81450852
O       -1.96913128      -4.18213025      -7.35171494
C       -1.42016412      -6.18638197      -8.43177223
C       -1.57445182      -7.57553212      -8.33683807
C       -0.62307593      -8.42470687      -8.91014278
C        0.48706055      -7.88582247      -9.56011015
Br       1.77324011      -9.03752309     -10.32929507
C        0.66086619      -6.50517286      -9.63794036
C       -0.29063983      -5.65539699      -9.06894817
H       -2.17018675      -3.24175957      -0.23177249
H       -3.61915684      -4.65456942      -1.65435225
H       -3.04434022      -1.91735000      -4.94721350
H       -1.60637761      -0.51044945      -3.52357230
H       -2.95695490      -4.10163560      -5.78020762
H       -6.51398715      -5.17072653      -5.59583886
H       -9.50297406      -7.18159642      -8.33892865
H       -8.63424167      -5.89007459      -9.19272471
H       -8.15959964      -8.17898135     -10.17858027
H       -7.49688303      -8.70815620      -8.61818974
H       -3.95887801      -6.54357289      -9.63317804
H       -2.41472541      -8.01629015      -7.80601827
H       -0.75096112      -9.50201744      -8.83548281
H        1.53206476      -6.08093715     -10.13080566
H       -0.14612770      -4.57758665      -9.12041625
C       -1.79166996       1.79166996       1.79166996
C       -1.42759654       2.02587169       3.11716250
C       -2.22771272       2.84248082       3.91916963
C       -3.39772212       3.40910654       3.39767885
C       -3.75680880       3.17219131       2.06458158
C       -2.94934711       2.36235142       1.26102439
C       -4.21559199       4.28541843       4.27707579
O       -3.64062963       5.01014982       5.08124354
N       -5.57902999       4.13223059       4.14044038
C       -6.59439637       4.86365496       4.80461554
C       -6.33954015       6.10166526       5.40578683
C       -7.36916460       6.81523755       6.02032876
O       -7.04129816       8.03841677       6.54808203
C       -8.20849059       8.81606859       6.83685704
C       -9.24134722       7.96675481       7.55794863
O       -9.70366103       6.91009406       6.70560021
C       -8.65951211       6.28397261       6.07430886
C       -8.93990342       5.06616792       5.46157804
C       -7.91030203       4.34527398       4.83745764
C       -8.20688980       3.02555589       4.21382645
O       -7.61278121       2.70659597       3.18359929
C       -9.16189018       2.05978974       4.81663841
C       -9.33181174       1.95198780       6.20302246
C      -10.22212330       1.00945482       6.72634746
C      -10.92589957       0.16644502       5.86652748
Br     -12.12462992      -1.10962487       6.57857300
C      -10.74458788       0.25045324       4.48720591
C       -9.85828417       1.19410711       3.96259371
H       -0.52470493       1.58611922       3.53289466
H       -1.94076330       3.03578762       4.95152758
H       -4.64410704       3.63049341       1.63430327
H       -3.22637366       2.19020214       0.22382356
H       -5.91381256       3.34650677       3.57847879
H       -5.35130763       6.55280550       5.37643941
H       -7.90085153       9.65758764       7.46505995
H       -8.60397995       9.21763222       5.89542879
H      -10.10861863       8.57440120       7.83414142
H       -8.82794434       7.52263311       8.47265152
H       -9.96052933       4.69339887       5.48170075
H       -8.76849415       2.57642181       6.89211787
H      -10.35149844       0.93356852       7.80339441
H      -11.28003426      -0.41444873       3.81409252
H       -9.70929741       1.24925812       2.88557507
C        1.79166996      -1.79166996       1.79166996
C        1.23675687      -2.43866373       2.89521012
C        2.04085124      -3.25481467       3.69369726
C        3.40074692      -3.40843303       3.39532756
C        3.95181676      -2.75790002       2.28386491
C        3.14291779      -1.94923278       1.48057236
C        4.22137757      -4.29764546       4.25906318
O        3.70557354      -5.31214085       4.71430860
N        5.49319545      -3.83526991       4.52323560
C        6.50595370      -4.49017232       5.26654085
C        6.46958434      -5.86813737       5.50927052
C        7.50130431      -6.49012955       6.21329706
O        7.40742132      -7.84977214       6.37060350
C        8.65303901      -8.41737511       6.79100211
C        9.25174806      -7.59492709       7.91937550
O        9.58348453      -6.27833263       7.45753814
C        8.56471447      -5.73727161       6.71580749
C        8.63287665      -4.36999534       6.46477739
C        7.60121923      -3.73856509       5.75324932
C        7.65989176      -2.26906574       5.51731465
O        7.22884346      -1.81857234       4.45556067
C        8.17887785      -1.32170127       6.53773921
C        8.02371565      -1.55230400       7.91080235
C        8.50436401      -0.61913952       8.83442205
C        9.12166416       0.54813194       8.38533985
Br       9.76541879       1.80921041       9.63736967
C        9.25833518       0.79691877       7.02083062
C        8.78202468      -0.13613178       6.09682854
H        0.18392142      -2.32129545       3.13850195
H        1.60835114      -3.76969132       4.55003605
H        4.99788718      -2.89210981       2.01890673
H        3.57267823      -1.45505194       0.61266919
H        5.71655178      -2.87715085       4.24509549
H        5.66440112      -6.48959132       5.12656011
H        8.45633259      -9.43998062       7.12718591
H        9.32655424      -8.46442170       5.92606502
H       10.17245152      -8.06108864       8.28362109
H        8.55561260      -7.50442125       8.76319511
H        9.49123810      -3.81321371       6.83117714
H        7.51610134      -2.43944316       8.28148933
H        8.38342566      -0.80623839       9.89879732
H        9.72567432       1.71217615       6.66617988
H        8.87899305       0.06643421       5.03157177
C       -0.00445707       0.01189536      -1.78238275
H       -0.66409135       0.67374010      -2.43557963
H        0.65740317      -0.63156657      -2.45157240
C       -0.90989263      -0.90692880      -0.91072765
C        0.90977584       0.90977584      -0.90977584
C       -0.00465871       1.77757030       0.00794375
H       -0.66225468       2.44313916      -0.64384735
H        0.64322798       2.43503045       0.67728295
C       -1.78241447       0.00034974      -0.00472694
H       -2.45427497      -0.65498947       0.64260836
H       -2.43311707       0.67328779      -0.65473579
C       -0.91132561       0.90220522       0.91563759
C       -0.01476271      -0.02253852       1.78660255
H       -0.67934791      -0.69751639       2.42135241
H        0.63392994       0.61504881       2.47327442
C        0.01484550      -1.77751727      -0.01636693
H        0.67870853      -2.42144646      -0.68295456
H       -0.62264859      -2.45592969       0.64226336
C        1.78714474       0.01002794       0.00389507
H        2.44202412       0.67113390       0.66197326
H        2.45385902      -0.65136977      -0.64189061
C        0.91606151      -0.90478549       0.90901405
