154
Properties=species:S:1:pos:R:3 pbc="F F F"
C        1.79273113       1.79273113      -1.79273113
C        1.51143146       3.14961692      -1.90347326
C        2.32397794       3.94847017      -2.70002213
C        3.41123415       3.38702455      -3.38003752
C        3.71289486       2.01657989      -3.28249351
C        2.87755835       1.22891284      -2.47142400
N        4.84129889       1.43938616      -3.99076677
C        4.73245540       0.12372763      -4.47179328
O        3.71575822      -0.56910799      -4.43893472
C        5.91642465      -0.46830830      -5.13983147
C        5.85388773      -1.80432940      -5.56131349
C        6.92830495      -2.37815158      -6.22569373
C        8.06767691      -1.61726969      -6.47910402
C        8.16555410      -0.26638964      -6.06974370
C        9.30046142       0.55023928      -6.30807537
C        9.33790482       1.87609242      -5.87419256
C        8.25192602       2.41076511      -5.19102449
C        7.11593948       1.62710819      -4.94247855
C        5.99521485       2.21952539      -4.17275976
O        6.18710987       3.34076248      -3.70265492
C        7.05748768       0.30193081      -5.37851076
H        0.66941525       3.59033703      -1.37700495
H        2.11494184       5.01091432      -2.79934059
H        3.99788567       4.04965231      -4.01245393
H        3.07536937       0.16953215      -2.33092923
H        4.96176642      -2.40200086      -5.37862676
H        6.87850236      -3.41414197      -6.55339439
H        8.88495158      -2.10405389      -7.00794559
H       10.21061542       2.49958389      -6.05658354
H        8.29916191       3.44313785      -4.84619511
C       10.46928390       0.07440651      -7.00164382
C       11.44817272      -0.32410343      -7.58250740
Br      13.03095315      -0.96846030      -8.52171468
C       -1.79273113      -1.79273113      -1.79273113
C       -1.76982859      -3.17222984      -1.62246322
C       -2.58229583      -3.96838967      -2.42178474
C       -3.41157051      -3.38168911      -3.38503659
C       -3.44932765      -1.98835125      -3.57428936
C       -2.61940693      -1.20387387      -2.75461439
N       -4.31065697      -1.38526017      -4.57553468
C       -3.86773668      -0.22593508      -5.23430454
O       -2.75387861       0.28399350      -5.11569983
C       -4.78643922       0.40851370      -6.21002230
C       -4.39401342       1.60682015      -6.82367855
C       -5.21099751       2.20646317      -7.77131276
C       -6.42076597       1.60739878      -8.11614406
C       -6.84829749       0.39812233      -7.51873301
C       -8.06719170      -0.25259366      -7.83899070
C       -8.43538640      -1.44273386      -7.21006954
C       -7.60259126      -2.00272372      -6.24840065
C       -6.39081591      -1.38204692      -5.91266338
C       -5.54995767      -1.98650105      -4.85104127
O       -6.03309931      -2.94644714      -4.25098082
C       -6.00209412      -0.19641940      -6.53941573
H       -1.12874138      -3.63234367      -0.87567218
H       -2.57314925      -5.04918630      -2.30286120
H       -4.00569448      -4.05079602      -4.00350141
H       -2.62504050      -0.11976799      -2.83102225
H       -3.44382371       2.07462874      -6.56919735
H       -4.90529046       3.13527985      -8.24774417
H       -7.02847867       2.10752812      -8.86789273
H       -9.37194376      -1.93861904      -7.45622006
H       -7.90790653      -2.92509082      -5.75549750
C       -8.98995393       0.26201910      -8.81739940
C       -9.76276730       0.69300729      -9.63681668
Br     -11.01234115       1.38987874     -10.96174512
C       -1.79273113       1.79273113       1.79273113
C       -3.09443341       1.39486184       2.07522639
C       -3.88852106       2.19734145       2.88660774
C       -3.37740207       3.39090762       3.40998654
C       -2.06367578       3.81238020       3.13591228
C       -1.27968668       2.98481299       2.31339551
N       -1.53902361       5.05177300       3.68065521
C       -0.62506465       5.79147949       2.91143216
O       -0.29373009       5.53841699       1.75343785
C       -0.05550132       7.02291983       3.50952668
C        0.91351256       7.73564882       2.78873555
C        1.43821809       8.91382002       3.30024516
C        0.99140780       9.38974728       4.53117177
C        0.01437151       8.69791709       5.28536259
C       -0.47587542       9.14337524       6.53952541
C       -1.43796627       8.41240735       7.23781617
C       -1.92419521       7.22409599       6.70542442
C       -1.45867127       6.76013343       5.46672151
C       -1.96914767       5.46631707       4.95203525
O       -2.69567907       4.82443596       5.71041224
C       -0.50390894       7.48414619       4.74987412
H       -3.49546510       0.46900782       1.67228431
H       -4.90980707       1.90136294       3.11402674
H       -4.04880417       3.99609405       4.01509369
H       -0.24727086       3.23958459       2.08897530
H        1.25855205       7.37718716       1.81975721
H        2.18889707       9.46670912       2.73994272
H        1.42454717      10.32034126       4.89304919
H       -1.81070873       8.75543585       8.20063827
H       -2.66541179       6.65629373       7.26678934
C       -0.02188858      10.35834504       7.16510061
C        0.35832540      11.37588225       7.68901984
Br       0.97309924      13.02115386       8.53615292
C        1.79273113      -1.79273113       1.79273113
C        3.12160348      -1.44175278       2.00116538
C        3.91610537      -2.24347598       2.81288889
C        3.37828131      -3.38948682       3.41052809
C        2.03677424      -3.76312490       3.21206912
C        1.25292744      -2.93729060       2.38767715
N        1.48443675      -4.95335461       3.83366046
C        0.50616068      -5.68369288       3.13812274
O        0.13450167      -5.46586816       1.98521511
C       -0.08827515      -6.86169276       3.81453021
C       -1.11817946      -7.56056957       3.16848170
C       -1.66943583      -8.69111541       3.75416753
C       -1.18880106      -9.13342009       4.98489222
C       -0.15029052      -8.45433102       5.66486767
C        0.37604118      -8.86717312       6.91556177
C        1.39881015      -8.15074597       7.53863368
C        1.91116384      -7.00925243       6.93329935
C        1.41099133      -6.57838538       5.69614951
C        1.95285436      -5.33191580       5.10272983
O        2.73938957      -4.69129654       5.79984117
C        0.39500457      -7.28899291       5.05393177
H        3.54347785      -0.55286098       1.54041840
H        4.95827425      -1.98400857       2.98291393
H        4.04955284      -3.99763825       4.01280081
H        0.20154823      -3.15500397       2.21927855
H       -1.49055109      -7.22884345       2.20009996
H       -2.46740348      -9.23335410       3.25180416
H       -1.64476112     -10.02736460       5.40623980
H        1.79921692      -8.46857114       8.49899478
H        2.70037316      -6.45166048       7.43646121
C       -0.10110568     -10.03272702       7.61371289
C       -0.50071618     -11.00887841       8.19841446
Br      -1.14685255     -12.58723264       9.14382744
C       -0.00445707       0.01189536      -1.78238275
H       -0.66409135       0.67374010      -2.43557963
H        0.65740317      -0.63156657      -2.45157240
C       -0.90989263      -0.90692880      -0.91072765
C        0.90977584       0.90977584      -0.90977584
C       -0.00465871       1.77757030       0.00794375
H       -0.66225468       2.44313916      -0.64384735
H        0.64322798       2.43503045       0.67728295
C       -1.78241447       0.00034974      -0.00472694
H       -2.45427497      -0.65498947       0.64260836
H       -2.43311707       0.67328779      -0.65473579
C       -0.91132561       0.90220522       0.91563759
C       -0.01476271      -0.02253852       1.78660255
H       -0.67934791      -0.69751639       2.42135241
H        0.63392994       0.61504881       2.47327442
C        0.01484550      -1.77751727      -0.01636693
H        0.67870853      -2.42144646      -0.68295456
H       -0.62264859      -2.45592969       0.64226336
C        1.78714474       0.01002794       0.00389507
H        2.44202412       0.67113390       0.66197326
H        2.45385902      -0.65136977      -0.64189061
C        0.91606151      -0.90478549       0.90901405
