146
Properties=species:S:1:pos:R:3 pbc="F F F"
C        1.79273113       1.79273113      -1.79273113
C        1.51143146       3.14961692      -1.90347326
C        2.32397794       3.94847017      -2.70002213
C        3.41123415       3.38702455      -3.38003752
C        3.71289486       2.01657989      -3.28249351
C        2.87755835       1.22891284      -2.47142400
N        4.84129889       1.43938616      -3.99076677
C        4.73245540       0.12372763      -4.47179328
O        3.71575822      -0.56910799      -4.43893472
C        5.91642465      -0.46830830      -5.13983147
C        5.85388773      -1.80432940      -5.56131349
C        6.92830495      -2.37815158      -6.22569373
C        8.06767691      -1.61726969      -6.47910402
C        8.16555410      -0.26638964      -6.06974370
C        9.30046142       0.55023928      -6.30807537
Br      10.84700389      -0.07936496      -7.22577937
C        9.33790482       1.87609242      -5.87419256
C        8.25192602       2.41076511      -5.19102449
C        7.11593948       1.62710819      -4.94247855
C        5.99521485       2.21952539      -4.17275976
O        6.18710987       3.34076248      -3.70265492
C        7.05748768       0.30193081      -5.37851076
H        0.66941525       3.59033703      -1.37700495
H        2.11494184       5.01091432      -2.79934059
H        3.99788567       4.04965231      -4.01245393
H        3.07536937       0.16953215      -2.33092923
H        4.96176642      -2.40200086      -5.37862676
H        6.87850236      -3.41414197      -6.55339439
H        8.88495158      -2.10405389      -7.00794559
H       10.21061542       2.49958389      -6.05658354
H        8.29916191       3.44313785      -4.84619511
C       -1.79273113      -1.79273113      -1.79273113
C       -1.73396623      -3.17486660      -1.65568882
C       -2.54649930      -3.97133886      -2.45463209
C       -3.41163331      -3.38231806      -3.38434485
C       -3.48601292      -1.98626374      -3.53969160
C       -2.65528514      -1.20152498      -2.72108507
N       -4.38446048      -1.38074174      -4.50624959
C       -3.98411892      -0.19637135      -5.14748604
O       -2.87983935       0.33686595      -5.04261154
C       -4.94002903       0.43854583      -6.08646462
C       -4.58998817       1.65964128      -6.68052492
C       -5.44276802       2.26152736      -7.59460645
C       -6.64619436       1.64215938      -7.92547627
C       -7.03145243       0.40964528      -7.34710101
C       -8.24222619      -0.26212916      -7.65442071
Br      -9.50884281       0.41944892      -8.90402442
C       -8.56787694      -1.47484257      -7.04547029
C       -7.69987851      -2.03704750      -6.11678961
C       -6.49516032      -1.39582150      -5.79454439
C       -5.61571422      -2.00458363      -4.76720214
O       -6.06224612      -2.98927899      -4.17900217
C       -6.14883823      -0.18718323      -6.40190780
H       -1.06495559      -3.63681974      -0.93498189
H       -2.50959294      -5.05407498      -2.36152882
H       -4.00460132      -4.05082203      -4.00456856
H       -2.68775196      -0.11638001      -2.77169877
H       -3.64510373       2.14377616      -6.43706474
H       -5.16993317       3.20806229      -8.05588390
H       -7.28288978       2.14500943      -8.65096294
H       -9.49829133      -1.98690886      -7.28158266
H       -7.97208140      -2.97750743      -5.63890603
C       -1.79273113       1.79273113       1.79273113
C       -3.07258016       1.36508640       2.12685509
C       -3.86641000       2.16809000       2.93797025
C       -3.37684539       3.39189703       3.40955380
C       -2.08545790       3.84374093       3.08276943
C       -1.30127817       3.01502919       2.26158783
N       -1.58314425       5.11439302       3.57391455
C       -0.71571005       5.85703155       2.75523470
O       -0.41143877       5.57848163       1.59566454
C       -0.16669064       7.12271834       3.29853884
C        0.75802195       7.84153529       2.52735847
C        1.26127991       9.05000182       2.98712519
C        0.83696229       9.55000993       4.21646360
C       -0.09541166       8.85286018       5.02063632
C       -0.56149621       9.32184597       6.27543388
Br       0.01391430      10.97133908       7.03599352
C       -1.47940250       8.58432159       7.02446571
C       -1.94453028       7.36622984       6.54295550
C       -1.50211599       6.87849452       5.30491570
C       -1.98769713       5.55481574       4.84498713
O       -2.67120694       4.91516975       5.64415058
C       -0.59187116       7.60828106       4.53777704
H       -3.45679702       0.41573218       1.76422803
H       -4.87087553       1.84891319       3.20540802
H       -4.04818908       3.99510600       4.01669682
H       -0.28433669       3.29346107       1.99803298
H        1.08486385       7.46390301       1.55935317
H        1.97755917       9.60754752       2.38776643
H        1.25188679      10.50379490       4.53693517
H       -1.83363107       8.94551931       7.98763247
H       -2.65086563       6.79409957       7.14352967
C        1.79273113      -1.79273113       1.79273113
C        3.10366117      -1.40931344       2.05154703
C        3.89787551      -2.21155182       2.86304291
C        3.37767274      -3.39045354       3.41016994
C        2.05451233      -3.79718433       3.16027160
C        1.27058570      -2.97015939       2.33715009
N        1.52044425      -5.02141764       3.72958992
C        0.58560784      -5.75879694       2.98357153
O        0.24157487      -5.51717225       1.82683783
C        0.00749707      -6.97370920       3.60674155
C       -0.98132934      -7.68267175       2.90952940
C       -1.51506947      -8.84615507       3.44476150
C       -1.05764630      -9.31121303       4.67594451
C       -0.06061934      -8.62279518       5.40673233
C        0.44098060      -9.05767830       6.66011717
Br      -0.17024455     -10.64506084       7.51860201
C        1.42282191      -8.33069487       7.33467301
C        1.91794006      -7.15682212       6.77895345
C        1.44153187      -6.70357134       5.54042301
C        1.96260322      -5.42430948       5.00058730
O        2.70854085      -4.78225357       5.73973285
C        0.46685330      -7.42396105       4.84711491
H        3.51178108      -0.49485648       1.63011967
H        4.92625845      -1.92682847       3.07210983
H        4.04906083      -3.99657135       4.01435972
H        0.23168817      -3.21348593       2.13065664
H       -1.33494877      -7.33285713       1.94048396
H       -2.28113422      -9.39615279       2.90273620
H       -1.49851024     -10.23052687       5.05682665
H        1.80426625      -8.66555383       8.29696276
H        2.67476579      -6.59176647       7.32196260
C       -0.00445707       0.01189536      -1.78238275
H       -0.66409135       0.67374010      -2.43557963
H        0.65740317      -0.63156657      -2.45157240
C       -0.90989263      -0.90692880      -0.91072765
C        0.90977584       0.90977584      -0.90977584
C       -0.00465871       1.77757030       0.00794375
H       -0.66225468       2.44313916      -0.64384735
H        0.64322798       2.43503045       0.67728295
C       -1.78241447       0.00034974      -0.00472694
H       -2.45427497      -0.65498947       0.64260836
H       -2.43311707       0.67328779      -0.65473579
C       -0.91132561       0.90220522       0.91563759
C       -0.01476271      -0.02253852       1.78660255
H       -0.67934791      -0.69751639       2.42135241
H        0.63392994       0.61504881       2.47327442
C        0.01484550      -1.77751727      -0.01636693
H        0.67870853      -2.42144646      -0.68295456
H       -0.62264859      -2.45592969       0.64226336
C        1.78714474       0.01002794       0.00389507
H        2.44202412       0.67113390       0.66197326
H        2.45385902      -0.65136977      -0.64189061
C        0.91606151      -0.90478549       0.90901405
