158
Properties=species:S:1:pos:R:3 pbc="F F F"
C        1.79151907       1.79151907      -1.79151907
C        1.68289687       3.17870917      -1.71180037
C        2.48941376       3.98298094      -2.52050980
C        3.40969097       3.39861522      -3.40003124
C        3.50745707       2.00434643      -3.48113373
C        2.69659536       1.20100870      -2.67362757
C        4.25045933       4.29217799      -4.24024981
O        3.81613777       5.39349800      -4.57479770
C        5.61489066       3.80522521      -4.68536983
C        6.59968197       4.97444418      -4.79401339
O        6.17355783       5.94836722      -5.72784636
C        6.93663078       5.52542306      -3.36033225
O        6.16627580       6.03675991      -2.56331326
N        8.28805564       5.29790219      -3.12783156
C        8.89529978       4.69981468      -4.21797853
C       10.22271271       4.34404404      -4.33834855
C       10.62391206       3.75478811      -5.54059850
C        9.69646282       3.54839741      -6.57774552
C        8.35588146       3.91572948      -6.43625181
C        7.96441017       4.48838935      -5.23558003
H        0.97725218       3.64403172      -1.02808844
H        2.40429967       5.06692587      -2.45650550
H        4.19019509       1.52299258      -4.17584872
H        2.77328451       0.11849927      -2.74305377
H        5.47615153       3.31777513      -5.65793914
H        5.99611375       3.06439496      -3.97267976
H        5.29810069       6.25968527      -5.40825980
H        8.74763391       5.57869168      -2.27421564
H       10.93496405       4.51401582      -3.53893528
H       11.66377246       3.46340462      -5.67042768
H        7.64144247       3.77549125      -7.24128522
C       10.13805721       2.94625008      -7.80901031
C       10.50789251       2.44195169      -8.84019458
Br      11.10588491       1.62654385     -10.50753232
C       -1.79151907      -1.79151907      -1.79151907
C       -1.53287293      -3.15799947      -1.88253401
C       -2.33987072      -3.96207313      -2.69096065
C       -3.40972152      -3.39973681      -3.39887911
C       -3.65852422      -2.02487824      -3.30953477
C       -2.84727504      -1.22110728      -2.50284932
C       -4.24501525      -4.29272956      -4.24514231
O       -3.74121717      -5.29701641      -4.74619988
C       -5.69408249      -3.92197721      -4.48942599
C       -6.55976357      -5.17881840      -4.62955757
O       -6.14566503      -5.99672704      -5.70737933
C       -6.67226548      -5.90875803      -3.24136259
O       -5.76747990      -6.40762158      -2.59124748
N       -8.00438755      -5.86233217      -2.84706967
C       -8.79041510      -5.22904480      -3.79363310
C      -10.15231442      -5.01697319      -3.73581769
C      -10.74665775      -4.35735597      -4.81528495
C       -9.96998727      -3.94102757      -5.91159092
C       -8.59147470      -4.16518266      -5.95120539
C       -8.00862571      -4.80935155      -4.87040229
H       -0.70970561      -3.60718095      -1.33248577
H       -2.13733548      -5.02998399      -2.76041156
H       -4.46195838      -1.55610793      -3.87097008
H       -3.04195826      -0.15309554      -2.43978375
H       -5.71818903      -3.32474867      -5.40892810
H       -6.06521149      -3.30659205      -3.66138492
H       -5.21213149      -6.23698468      -5.51692958
H       -8.33210226      -6.27985308      -1.98858589
H      -10.74726305      -5.34833338      -2.89231872
H      -11.81889796      -4.17505049      -4.80365629
H       -7.99195930      -3.86237694      -6.80388269
C      -10.60888625      -3.27031770      -7.01411365
C      -11.14396414      -2.70859820      -7.93747644
Br     -12.00913984      -1.80034526      -9.43047597
C       -1.79151907       1.79151907       1.79151907
C       -2.94914008       1.26372002       2.36054631
C       -3.75478216       2.07273902       3.16538332
C       -3.39598176       3.40488246       3.40747321
C       -2.23628400       3.93095859       2.82569463
C       -1.43326423       3.12067744       2.01728997
C       -4.28072171       4.22954098       4.27262444
O       -5.48547265       3.98407694       4.31488388
C       -3.67257885       5.37268783       5.06021902
C       -4.40991753       5.56889645       6.38932556
O       -5.78045041       5.86695369       6.20236731
C       -4.11385895       4.35921507       7.34931208
O       -4.40489474       3.18660603       7.17484819
N       -3.41602297       4.85187800       8.44588841
C       -3.23514384       6.22091496       8.35703420
C       -2.59887819       7.03616395       9.27006316
C       -2.53790087       8.40196249       8.97943531
C       -3.11572994       8.90644278       7.80043303
C       -3.75589284       8.06403113       6.88793878
C       -3.80080871       6.70893680       7.17863405
H       -3.23443069       0.22934983       2.18559181
H       -4.65862739       1.65877569       3.61032795
H       -1.94940232       4.96878898       2.97084510
H       -0.53560611       3.53489195       1.56433949
H       -3.75156068       6.26821311       4.43209201
H       -2.61205948       5.17018132       5.25094767
H       -6.15411895       5.10534409       5.70658272
H       -3.12339753       4.26444136       9.21270234
H       -2.16339375       6.64289529      10.18162611
H       -2.04514552       9.07413219       9.67832704
H       -4.21951066       8.45219035       5.98651793
C       -3.04529093      10.31889875       7.52912792
C       -2.98629826      11.50183063       7.30190989
Br      -2.89091210      13.41453143       6.93451755
C        1.79151907      -1.79151907       1.79151907
C        3.12977709      -1.45554572       1.98808360
C        3.93458586      -2.26455768       2.79376096
C        3.39701921      -3.40227551       3.40904270
C        2.05408143      -3.73853878       3.20031703
C        1.25116311      -2.92962577       2.39044275
C        4.28852945      -4.23350727       4.26085041
O        5.49286761      -4.27783476       4.01373110
C        3.67896201      -5.02823906       5.39828463
C        4.65976254      -5.13758943       6.57078758
O        5.86422926      -5.78263105       6.20291110
C        4.83578837      -3.73240909       7.25418862
O        5.29453491      -2.71770590       6.75410815
N        4.33785873      -3.82744463       8.54848603
C        3.88414694      -5.10549581       8.82345025
C        3.33993184      -5.55734688      10.00782658
C        2.95312129      -6.89916001      10.06701737
C        3.12756215      -7.74115303       8.95389056
C        3.68078131      -7.26425134       7.76283010
C        4.05027273      -5.92880666       7.70930016
H        3.55665028      -0.57125536       1.52146670
H        4.97998088      -2.00033071       2.94741944
H        1.61795477      -4.63141410       3.63966752
H        0.20971231      -3.19708395       2.22804129
H        3.43471711      -6.01949433       4.99765435
H        2.75253777      -4.54714432       5.73350638
H        6.24721564      -5.24016357       5.47866655
H        4.35295644      -3.05254995       9.19503484
H        3.21641110      -4.90595587      10.86554818
H        2.52194818      -7.28952158      10.98613499
H        3.83448222      -7.91552987       6.90820684
C        2.72745743      -9.12148981       9.04437036
C        2.39236973     -10.27752186       9.12014718
Br       1.85056126     -12.14672792       9.24267190
C       -0.00445707       0.01189536      -1.78238275
H       -0.66409135       0.67374010      -2.43557963
H        0.65740317      -0.63156657      -2.45157240
C       -0.90989263      -0.90692880      -0.91072765
C        0.90977584       0.90977584      -0.90977584
C       -0.00465871       1.77757030       0.00794375
H       -0.66225468       2.44313916      -0.64384735
H        0.64322798       2.43503045       0.67728295
C       -1.78241447       0.00034974      -0.00472694
H       -2.45427497      -0.65498947       0.64260836
H       -2.43311707       0.67328779      -0.65473579
C       -0.91132561       0.90220522       0.91563759
C       -0.01476271      -0.02253852       1.78660255
H       -0.67934791      -0.69751639       2.42135241
H        0.63392994       0.61504881       2.47327442
C        0.01484550      -1.77751727      -0.01636693
H        0.67870853      -2.42144646      -0.68295456
H       -0.62264859      -2.45592969       0.64226336
C        1.78714474       0.01002794       0.00389507
H        2.44202412       0.67113390       0.66197326
H        2.45385902      -0.65136977      -0.64189061
C        0.91606151      -0.90478549       0.90901405
