98
Properties=species:S:1:pos:R:3 pbc="F F F"
O        2.34767329      -0.07190503      -3.21087978
C        2.46828613       1.26245129      -2.89933525
C        1.79478729       1.79478729      -1.79478729
C        1.92125249       3.14326114      -1.48429112
C        2.72489571       3.96069542      -2.28103147
C        3.41547208       3.44938310      -3.40078858
C        3.28373934       2.07412316      -3.71655832
C        3.97281586       1.56319061      -4.83740325
C        4.77617592       2.38071376      -5.63434955
C        4.90519400       3.72853680      -5.32198082
Br       6.00162307       4.82246700      -6.41498943
C        4.23287790       4.26053689      -4.21656892
O        4.35783674       5.59374748      -3.90182792
H        1.75764382      -0.47309056      -2.54704862
H        1.40458860       3.57283867      -0.63017388
H        2.81468603       5.01571651      -2.02490469
H        3.88178866       0.50851296      -5.09447216
H        5.29120950       1.95160148      -6.48969524
H        4.95467916       5.99312017      -4.56063189
O       -1.66249824      -3.60773523      -0.21641457
C       -2.12747444      -3.09673442      -1.40586382
C       -1.79478729      -1.79478729      -1.79478729
C       -2.26653546      -1.28430219      -2.99796711
C       -3.07256548      -2.07966010      -3.81439703
C       -3.42309490      -3.39637343      -3.44617544
C       -2.94217915      -3.91439101      -2.21785066
C       -3.29423636      -5.23043854      -1.84873482
C       -4.10056482      -6.02566554      -2.66500888
C       -4.56969401      -5.51630343      -3.86971419
Br      -5.66211308      -6.61163465      -4.96533179
C       -4.23577713      -4.21488967      -4.25931690
O       -4.69626717      -3.70580800      -5.45133697
H       -1.12102106      -2.91578244       0.20520162
H       -2.01792491      -0.27492764      -3.31474859
H       -3.43449290      -1.66591069      -4.75490365
H       -2.93362018      -5.64365420      -0.90749940
H       -4.35090045      -7.03432508      -2.34728070
H       -5.23068988      -4.40076565      -5.87697569
O       -1.55767001       3.64997398       0.27900405
C       -2.07520779       3.11781336       1.43705153
C       -1.79478729       1.79478729       1.79478729
C       -2.31950679       1.26293615       2.96636181
C       -3.12618952       2.05798711       3.78244598
C       -3.42463609       3.39569511       3.44531257
C       -2.88973696       3.93555002       2.24913384
C       -3.18970202       5.27266821       1.91103949
C       -3.99668199       6.06760251       2.72695472
C       -4.51879877       5.53674436       3.90016849
Br      -5.61122965       6.63197523       4.99587464
C       -4.23715482       4.21419175       4.25863714
O       -4.75023310       3.68372887       5.41945017
H       -1.02455354       2.95450982      -0.14746149
H       -2.11188862       0.23704724       3.25866529
H       -3.52997906       1.62733543       4.69799274
H       -2.78721581       5.70285013       0.99470784
H       -4.20601562       7.09286026       2.43363035
H       -5.27633677       4.38185036       5.85024408
O        1.71099228      -0.18912155       3.58653421
C        2.15084235      -1.39271209       3.08651824
C        1.79478729      -1.79478729       1.79478729
C        2.24297605      -3.01122662       1.29460208
C        3.05058108      -3.82677011       2.08927142
C        3.42482936      -3.44519927       3.39561514
C        2.96522990      -2.20487743       3.90431350
C        3.33792595      -1.82414580       5.21133796
C        4.14524132      -2.63986442       6.00613350
C        4.59607475      -3.85486680       5.50477007
Br       5.69257015      -4.94819019       6.59831917
C        4.24123735      -4.25624382       4.21250253
O        4.68558344      -5.45734990       3.71047880
H        1.17173409       0.23374351       2.89361129
H        1.97528217      -3.33874843       0.29357055
H        3.39462177      -4.77734359       1.68334188
H        2.99260379      -0.87430273       5.61786726
H        4.41125090      -2.31331475       7.00794057
H        5.23188909      -5.87630076       4.40024137
C       -0.00445707       0.01189536      -1.78238275
H       -0.66409135       0.67374010      -2.43557963
H        0.65740317      -0.63156657      -2.45157240
C       -0.90989263      -0.90692880      -0.91072765
C        0.90977584       0.90977584      -0.90977584
C       -0.00465871       1.77757030       0.00794375
H       -0.66225468       2.44313916      -0.64384735
H        0.64322798       2.43503045       0.67728295
C       -1.78241447       0.00034974      -0.00472694
H       -2.45427497      -0.65498947       0.64260836
H       -2.43311707       0.67328779      -0.65473579
C       -0.91132561       0.90220522       0.91563759
C       -0.01476271      -0.02253852       1.78660255
H       -0.67934791      -0.69751639       2.42135241
H        0.63392994       0.61504881       2.47327442
C        0.01484550      -1.77751727      -0.01636693
H        0.67870853      -2.42144646      -0.68295456
H       -0.62264859      -2.45592969       0.64226336
C        1.78714474       0.01002794       0.00389507
H        2.44202412       0.67113390       0.66197326
H        2.45385902      -0.65136977      -0.64189061
C        0.91606151      -0.90478549       0.90901405
