194
Properties=species:S:1:pos:R:3 pbc="F F F"
C        1.79233985       1.79233985      -1.79233985
C        1.38937117       3.09390670      -2.08404018
C        2.18625107       3.89241699      -2.90163986
C        3.38265099       3.38817001      -3.41873534
C        3.80307582       2.08425386      -3.11406848
C        5.02004886       1.50734745      -3.70257666
C        6.15069978       2.20159427      -3.90954126
C        7.27567454       1.57585943      -4.66244999
O        7.31074643       0.36412874      -4.85514348
C        8.30968954       2.51463983      -5.22255390
C        7.83146614       3.77498483      -5.88337063
O        6.64383125       4.08459595      -5.94510789
N        8.76068514       4.60725656      -6.43237412
H        8.39396984       5.44072011      -6.87358489
C       10.12313798       4.33672683      -6.45407374
C       10.98357093       5.23880524      -7.08568153
C       12.34983850       4.97143099      -7.13329458
C       12.84052957       3.80880375      -6.54600616
Br      14.69308723       3.43709680      -6.61614672
C       11.97795189       2.91184803      -5.91047603
C       10.59691070       3.16501412      -5.85638436
C        9.63778257       2.22054248      -5.20220692
C       10.12820093       0.98972668      -4.52841626
C       10.53272652       1.03316333      -3.18740221
C       11.08554545      -0.09896934      -2.58447529
C       11.23533731      -1.27772562      -3.31465534
C       10.83144663      -1.32908172      -4.64774383
C       10.28420369      -0.19827227      -5.25551707
C        2.98725122       1.28312049      -2.30561365
H        0.45641503       3.48909136      -1.69118309
H        1.87173681       4.90304393      -3.14998561
H        3.96967715       4.01910218      -4.08428844
H        4.94842698       0.46678253      -4.01568374
H        6.25032252       3.23767720      -3.61067392
H       10.60246014       6.14466125      -7.54960131
H       13.01903553       5.66840940      -7.63126739
H       12.39520955       2.01091418      -5.46610889
H       10.43974734       1.94934909      -2.60977052
H       11.40478435      -0.06175132      -1.54609122
H       11.66440518      -2.15894431      -2.84429472
H       10.93959515      -2.24978761      -5.21517712
H        9.97171692      -0.25141642      -6.29583701
H        3.28172823       0.26134971      -2.07792275
C       -1.79233985      -1.79233985      -1.79233985
C       -1.88430016      -3.15695944      -1.52605845
C       -2.67612723      -3.96360547      -2.34057522
C       -3.37493025      -3.40199814      -3.41262795
C       -3.30083422      -2.02529676      -3.67526718
C       -3.96866076      -1.42335161      -4.83796060
C       -5.17811117      -1.80113969      -5.28258445
C       -5.70067162      -1.24811982      -6.56519252
O       -5.19027629      -0.25833602      -7.08140635
C       -6.82692547      -2.00818139      -7.21177642
C       -6.73488857      -3.50618273      -7.24875031
O       -5.80586795      -4.12855039      -6.73911675
N       -7.72983906      -4.19768056      -7.87279619
H       -7.62376173      -5.20390875      -7.88060435
C       -8.80420222      -3.59485228      -8.51488404
C       -9.74445662      -4.39949897      -9.16410211
C      -10.81627978      -3.80880818      -9.82947611
C      -10.93828576      -2.42227511      -9.83477861
Br     -12.38636956      -1.61558726     -10.74437393
C       -9.99930273      -1.62111160      -9.17986162
C       -8.91064795      -2.20086240      -8.50679883
C       -7.87339247      -1.37731855      -7.80982095
C       -7.99153937       0.10349137      -7.75829588
C       -8.73165167       0.71701228      -6.73865267
C       -8.92447657       2.10034314      -6.74691797
C       -8.37939274       2.87653173      -7.76940600
C       -7.63882970       2.27328988      -8.78456891
C       -7.44900383       0.89069909      -8.78314375
C       -2.48889442      -1.22526351      -2.86182742
H       -1.33730637      -3.60080105      -0.69858206
H       -2.74009574      -5.03243552      -2.15223509
H       -3.95799748      -4.05896896      -4.05610133
H       -3.40087472      -0.66086178      -5.36915675
H       -5.76461046      -2.55773535      -4.77632782
H       -9.64870553      -5.48202855      -9.16598863
H      -11.54384389      -4.43331058     -10.34155785
H      -10.12320035      -0.54079131      -9.20824095
H       -9.17856616       0.12424915      -5.94454994
H       -9.50424943       2.57393525      -5.95881008
H       -8.52870033       3.95336358      -7.77441883
H       -7.20614649       2.87828495      -9.57712311
H       -6.86817864       0.43208981      -9.58004869
H       -2.39725699      -0.16054419      -3.06319952
C       -1.79233985       1.79233985       1.79233985
C       -3.01156178       1.30110318       2.25465309
C       -3.82289417       2.11172748       3.04568627
C       -3.40966831       3.40569565       3.37419238
C       -2.17467618       3.90000222       2.92671976
C       -1.75043970       5.28062672       3.19890655
C       -1.98600106       5.91959896       4.35623529
C       -1.66446550       7.37065403       4.47886442
O       -0.94121702       7.92934464       3.65945699
C       -2.32796309       8.10958514       5.60933504
C       -3.78124504       7.83817665       5.87039992
O       -4.42968815       7.01374590       5.23010103
N       -4.39903667       8.53748800       6.86379115
H       -5.37959512       8.32844814       7.00023158
C       -3.77303440       9.51889918       7.62200497
C       -4.51498832      10.20768990       8.58537947
C       -3.90656150      11.20837302       9.33962955
C       -2.56380815      11.50598152       9.12554981
Br      -1.73609521      12.86973271      10.14050283
C       -1.82357716      10.81140176       8.16529703
C       -2.42295614       9.80147653       7.39387652
C       -1.67009794       9.04774459       6.34268943
C       -0.22477326       9.30822445       6.11334617
C        0.74252700       8.62931090       6.86650816
C        2.09498901       8.94595221       6.72008821
C        2.48793334       9.93807942       5.82212094
C        1.53140334      10.61457203       5.06694004
C        0.17859194      10.30529962       5.21474081
C       -1.37372239       3.08437011       2.11789285
H       -3.34183002       0.29856119       1.99629826
H       -4.78417728       1.74432009       3.39626898
H       -4.07748270       4.03225698       3.96332810
H       -1.25818102       5.79675070       2.37596153
H       -2.47501054       5.43279730       5.19086579
H       -5.56486251       9.98095652       8.75090368
H       -4.48477237      11.75025956      10.08368041
H       -0.77764486      11.07323125       8.02135650
H        0.45141223       7.86629942       7.58397977
H        2.84352303       8.42291999       7.30972729
H        3.54092244      10.18302145       5.70765657
H        1.83724348      11.38181355       4.36041459
H       -0.55795864      10.83931028       4.61886859
H       -0.42471011       3.45683913       1.73945146
C        1.79233985      -1.79233985       1.79233985
C        2.79504379      -1.20844322       2.56383103
C        3.60959606      -2.01503474       3.35567712
C        3.41474886      -3.39874150       3.37606598
C        2.39497123      -3.99118031       2.61524661
C        2.21613613      -5.44914084       2.56469601
C        2.37968661      -6.25851469       3.62363401
C        2.33887485      -7.73759472       3.43751438
O        1.88776083      -8.23313463       2.40912320
C        2.94012166      -8.56727102       4.53949060
C        4.24612490      -8.11668856       5.12700814
O        4.81360171      -7.08516240       4.77477099
N        4.81801287      -8.88827442       6.09402852
H        5.70059486      -8.55129483       6.45638515
C        4.28405653     -10.09125202       6.53863000
C        4.97871961     -10.82611827       7.50321981
C        4.46624450     -12.04400479       7.94431478
C        3.26443806     -12.51097725       7.41992416
Br       2.56958503     -14.16790623       8.00883949
C        2.56976492     -11.77085897       6.45965206
C        3.07449841     -10.54211359       6.00169719
C        2.37086652      -9.72878691       4.96087854
C        1.06511078     -10.17383754       4.40739555
C       -0.12944700      -9.82889647       5.05384258
C       -1.34802937     -10.32937981       4.58970097
C       -1.38052227     -11.17310548       3.47968381
C       -0.19651519     -11.51708853       2.82953539
C        1.02364871     -11.02393968       3.29386010
C        1.59238753      -3.17447769       1.80912013
H        2.95640493      -0.13393319       2.54635135
H        4.40645127      -1.57110570       3.94720937
H        4.08734690      -4.01099166       3.97472921
H        1.98017419      -5.86461574       1.58610332
H        2.61643609      -5.87423077       4.60800678
H        5.91988956     -10.46638611       7.91044703
H        5.00973369     -12.62028133       8.68869731
H        1.63584208     -12.16814550       6.06824503
H       -0.11961368      -9.18722263       5.93125800
H       -2.27308512     -10.06606996       5.09613941
H       -2.32951627     -11.56114301       3.11812884
H       -0.22153640     -12.16747357       1.95904749
H        1.94035804     -11.29859033       2.77718914
H        0.81300743      -3.61569505       1.19229822
C       -0.00445707       0.01189536      -1.78238275
H       -0.66409135       0.67374010      -2.43557963
H        0.65740317      -0.63156657      -2.45157240
C       -0.90989263      -0.90692880      -0.91072765
C        0.90977584       0.90977584      -0.90977584
C       -0.00465871       1.77757030       0.00794375
H       -0.66225468       2.44313916      -0.64384735
H        0.64322798       2.43503045       0.67728295
C       -1.78241447       0.00034974      -0.00472694
H       -2.45427497      -0.65498947       0.64260836
H       -2.43311707       0.67328779      -0.65473579
C       -0.91132561       0.90220522       0.91563759
C       -0.01476271      -0.02253852       1.78660255
H       -0.67934791      -0.69751639       2.42135241
H        0.63392994       0.61504881       2.47327442
C        0.01484550      -1.77751727      -0.01636693
H        0.67870853      -2.42144646      -0.68295456
H       -0.62264859      -2.45592969       0.64226336
C        1.78714474       0.01002794       0.00389507
H        2.44202412       0.67113390       0.66197326
H        2.45385902      -0.65136977      -0.64189061
C        0.91606151      -0.90478549       0.90901405
