181
Properties=species:S:1:pos:R:3 pbc="F F F"
C        0.00000000       0.00000000       0.00000000
C        0.88243583       0.88243583      -0.88243583
C        0.47946714       2.18400268      -1.17413615
C        1.27634705       2.98251297      -1.99173583
C        2.47274696       2.47826599      -2.50883132
C        2.89317180       1.17434983      -2.20416446
C        4.11014483       0.59744343      -2.79267264
C        5.24079575       1.29169025      -2.99963724
C        6.36577051       0.66595541      -3.75254596
O        6.40084241      -0.54577528      -3.94523946
C        7.39978551       1.60473581      -4.31264988
C        6.92156212       2.86508081      -4.97346661
O        5.73392722       3.17469193      -5.03520386
N        7.85078111       3.69735254      -5.52247009
H        7.48406582       4.53081608      -5.96368086
C        9.21323395       3.42682280      -5.54416972
C       10.07366690       4.32890122      -6.17577751
C       11.43993447       4.06152696      -6.22339056
C       11.93062554       2.89889972      -5.63610214
C       11.06804787       2.00194400      -5.00057201
C        9.68700667       2.25511010      -4.94648034
C        8.72787855       1.31063846      -4.29230290
C        9.21829691       0.07982266      -3.61851224
C        9.62282250       0.12325930      -2.27749818
C       10.17564143      -1.00887336      -1.67457127
C       10.32543328      -2.18762965      -2.40475131
C        9.92154260      -2.23898575      -3.73783981
C        9.37429966      -1.10817629      -4.34561305
C        2.07734719       0.37321647      -1.39570963
H       -0.45348899       2.57918733      -0.78127906
H        0.96183278       3.99313990      -2.24008158
H        3.05977313       3.10919816      -3.17438442
H        4.03852295      -0.44312149      -3.10577971
H        5.34041849       2.32777317      -2.70076990
H        9.69255612       5.23475723      -6.63969729
H       12.10913151       4.75850538      -6.72136337
H       11.48530553       1.10101016      -4.55620486
H        9.52984332       1.03944506      -1.69986650
H       10.49488033      -0.97165535      -0.63618720
H       10.75450115      -3.06884833      -1.93439069
H       10.02969112      -3.15969163      -4.30527309
H        9.06181290      -1.16132045      -5.38593299
H        2.37182421      -0.64855431      -1.16801873
C       13.34151447       2.61581152      -5.68952046
C       14.52313394       2.37872515      -5.73425831
Br      16.43371269       1.99537655      -5.80659563
C       -0.88243583      -0.88243583      -0.88243583
C       -1.79063120      -1.75729226      -0.28968251
C       -2.58333482      -2.57303449      -1.09422653
C       -2.46783074      -2.50664477      -2.48536877
C       -1.56790879      -1.61473767      -3.08903963
C       -1.37720727      -1.57716551      -4.54588811
C       -2.37411735      -1.72464726      -5.43335863
C       -2.05996308      -1.83748590      -6.88682290
O       -0.95570391      -1.52344808      -7.32115459
C       -3.13853394      -2.41740657      -7.76123069
C       -3.88108602      -3.62117800      -7.25784551
O       -3.67209166      -4.11817749      -6.15355387
N       -4.82798440      -4.17804460      -8.06457474
H       -5.29814878      -4.99146775      -7.68894623
C       -5.11715011      -3.72238676      -9.34468960
C       -6.07617247      -4.39784338     -10.10432977
C       -6.36258936      -3.96517975     -11.39708288
C       -5.69095501      -2.86093301     -11.91373939
C       -4.73666146      -2.18461113     -11.14929128
C       -4.43372227      -2.61001840      -9.84485644
C       -3.40491370      -1.92484974      -9.00105646
C       -2.69661829      -0.71791659      -9.50209692
C       -3.25618229       0.55414225      -9.32153994
C       -2.63990897       1.67703713      -9.87846749
C       -1.46399570       1.53648051     -10.61503976
C       -0.89986036       0.27466277     -10.79519907
C       -1.51583891      -0.85046734     -10.24543017
C       -0.76301066      -0.81114251      -2.27212011
H       -1.87962622      -1.81896035       0.79160916
H       -3.28197035      -3.27199090      -0.64109302
H       -3.07221253      -3.17991699      -3.09122618
H       -0.34915745      -1.46488967      -4.88713405
H       -3.40532316      -1.84011278      -5.12352562
H       -6.59823071      -5.26345854      -9.70532138
H       -7.10258469      -4.49464096     -11.99177461
H       -4.22777898      -1.32833192     -11.58640964
H       -4.18206549       0.67862254      -8.76571192
H       -3.07869560       2.66225089      -9.74296746
H       -0.98411254       2.41110812     -11.04703909
H        0.02130293       0.16502839     -11.36160391
H       -1.06516136      -1.82932525     -10.39193883
H       -0.04114202      -0.13141956      -2.71872704
C       -5.97943434      -2.41514605     -13.25226607
C       -6.22103577      -2.04179948     -14.37328216
Br      -6.61168485      -1.43812965     -16.18587037
C       -0.88243583       0.88243583       0.88243583
C       -2.24067561       1.00172813       0.59520223
C       -3.04139353       1.81895210       1.39025022
C       -2.48208250       2.50791744       2.46984433
C       -1.11843498       2.37789680       2.77535431
C       -0.49290334       3.14677123       3.86058632
C       -1.09255734       3.40571613       5.03384977
C       -0.44527407       4.33211454       6.00688327
O        0.73642696       4.64392023       5.89281332
C       -1.33416977       4.90642446       7.07657698
C       -2.69854388       5.38686583       6.67469982
O       -3.12656745       5.29044323       5.52681233
N       -3.49100937       5.94925638       7.63033799
H       -4.39860802       6.26572215       7.31423258
C       -3.09368197       6.14322421       8.94732029
C       -3.97075278       6.77320329       9.83438956
C       -3.57896061       6.99291613      11.15297525
C       -2.31796452       6.57710367      11.57055922
C       -1.44574915       5.94251699      10.68229774
C       -1.82421788       5.71618358       9.34819566
C       -0.91233595       5.05738111       8.36110284
C        0.42539364       4.56255131       8.77947414
C        0.56558712       3.27486083       9.31430627
C        1.80410623       2.84729138       9.79815418
C        2.90657950       3.70005802       9.74907642
C        2.77513473       4.98074152       9.21478987
C        1.53794466       5.41383325       8.73584784
C       -0.31793851       1.56794146       1.96039331
H       -2.67989271       0.47454641      -0.24746172
H       -4.09852837       1.93302453       1.16350137
H       -3.12098492       3.16839228       3.05397850
H        0.49616709       3.54968908       3.64765919
H       -2.07600963       3.02032904       5.27262289
H       -4.95381572       7.10358153       9.50961338
H       -4.25726199       7.48999770      11.84174057
H       -0.46615478       5.63489033      11.04147544
H       -0.28795219       2.60457267       9.37663002
H        1.90969727       1.85049472      10.21861473
H        3.87060093       3.36606954      10.12457490
H        3.63571104       5.64300511       9.16797852
H        1.44855853       6.41481309       8.32017088
H        0.74606438       1.47323473       2.16411827
C       -1.90692475       6.80887404      12.93104766
C       -1.56267895       7.00298172      14.07045674
Br      -1.00606261       7.31683742      15.91278484
C        0.88243583      -0.88243583       0.88243583
C        1.88689104      -0.29884066       1.65187427
C        2.70142421      -1.10546154       2.44371009
C        2.50481547      -2.48888749       2.46614131
C        1.48328937      -3.08098894       1.70740778
C        1.30250492      -4.53878094       1.65897504
C        1.46637943      -5.34699655       2.71874726
C        1.42341538      -6.82626182       2.53459468
O        0.97033091      -7.32254620       1.50742947
C        2.02501494      -7.65529061       3.63686565
C        3.33235858      -7.20563964       4.22211131
O        3.90071174      -6.17530476       3.86780652
N        3.90449979      -7.97671451       5.18938944
H        4.78798470      -7.64040928       5.55016878
C        3.36956498      -9.17842455       5.63623694
C        4.06452540      -9.91294189       6.60087834
C        3.55104799     -11.12959315       7.04421086
C        2.34796148     -11.59568735       6.52197858
C        1.65300337     -10.85591239       5.56164811
C        2.15873139      -9.62841406       5.10145166
C        1.45480494      -8.81552333       4.06049163
C        0.14775998      -9.25959882       3.50927300
C       -1.04551348      -8.91227708       4.15681638
C       -2.26534124      -9.41178253       3.69489805
C       -2.30036089     -10.25689929       2.58601655
C       -1.11764166     -10.60325415       1.93478418
C        0.10375838     -10.11108498       2.39689306
C        0.68071932      -2.26429092       0.90126304
H        2.04961795       0.77543617       1.63279562
H        3.49961728      -0.66179992       3.03363707
H        3.17739582      -3.10123331       3.06472657
H        1.06474009      -4.95521450       0.68122657
H        1.70489897      -4.96174745       3.70231514
H        5.00668565      -9.55390195       7.00642303
H        4.09475477     -11.70561000       7.78863549
H        0.71806216     -11.25249557       5.17196282
H       -1.03371549      -8.26948309       5.03338728
H       -3.18939980      -9.14662156       4.20219043
H       -3.25032266     -10.64417539       2.22619078
H       -1.14462982     -11.25473071       1.06517169
H        1.01944264     -10.38758916       1.87939364
H       -0.10002788      -2.70529616       0.28602035
C        1.81771897     -12.85632092       6.97280656
C        1.37364087     -13.91210154       7.35037500
Br       0.65560413     -15.61920951       7.96087123
