126
Properties=species:S:1:pos:R:3 pbc="F F F"
C        1.78922479       1.78922479      -1.78922479
C        1.84302747       1.58965006      -3.16079851
N        2.59530312       2.34336110      -3.99608935
C        3.32714822       3.33520520      -3.42789557
C        3.35408858       3.59348674      -2.06087718
C        2.55171944       2.80962607      -1.22600520
C        4.21476090       4.69644811      -1.56514194
O        4.43914108       5.63369291      -2.32136799
N        4.71077220       4.52919172      -0.28756194
C        5.54421069       5.40764917       0.44693119
C        5.96213560       6.65083442      -0.03622630
C        6.79050104       7.47421628       0.73524832
C        7.20825143       7.06815886       2.00011550
C        6.79794044       5.83541990       2.50091198
C        5.97209073       5.01245595       1.72914850
H        1.26863019       0.80543950      -3.64574209
H        3.91545420       3.92698385      -4.12660736
H        2.49273267       2.99923061      -0.15904728
H        4.52524362       3.65309868       0.18745578
H        5.66291445       7.01433325      -1.01450466
H        7.10813497       8.43661674       0.34025131
H        7.85183342       7.71258240       2.59388762
H        7.12578035       5.52524009       3.48968024
C        5.57321676       3.74905953       2.29335504
C        5.23915980       2.69096502       2.76587802
Br       4.69901797       0.98011569       3.52990771
C       -1.78922479      -1.78922479      -1.78922479
C       -1.91895224      -1.52904759      -3.14547619
N       -2.67520325      -2.27890147      -3.98064886
C       -3.33167955      -3.33050983      -3.42805962
C       -3.28000858      -3.65298072      -2.07546320
C       -2.47519764      -2.87058703      -1.24156604
C       -4.06338969      -4.81836334      -1.59459792
O       -4.28057112      -5.72930260      -2.38432826
N       -4.50383698      -4.73494719      -0.28874169
C       -5.25884331      -5.68609266       0.44000731
C       -5.64163231      -6.92437991      -0.08318411
C       -6.39233331      -7.82204439       0.68490870
C       -6.76640213      -7.49596753       1.98607487
C       -6.38986601      -6.26929251       2.52671016
C       -5.64166970      -5.37215407       1.75842558
H       -1.40587442      -0.69613329      -3.61780408
H       -3.92519994      -3.91715510      -4.12669036
H       -2.35559236      -3.10642266      -0.18899553
H       -4.33627217      -3.87385795       0.21924359
H       -5.37384602      -7.22707040      -1.09083594
H       -6.68380124      -8.77939260       0.25869344
H       -7.34969860      -8.19783236       2.57700276
H       -6.68322018      -6.02168065       3.54356063
C       -5.27488051      -4.11839167       2.36435093
C       -4.96769456      -3.06836566       2.87181342
Br      -4.47100087      -1.37056241       3.69233733
C       -1.78922479       1.78922479       1.78922479
C       -2.86307091       1.24906600       2.48133912
N       -3.67384160       1.97472733       3.28618464
C       -3.39604552       3.29877049       3.39543299
C       -2.35612309       3.93123190       2.72109751
C       -1.52453279       3.15112528       1.91169265
C       -2.17298009       5.39178166       2.91158920
O       -2.53896656       5.88261376       3.97262166
N       -1.62886634       6.06357047       1.83508905
C       -1.33359344       7.44447180       1.72686342
C       -1.52442106       8.35324770       2.77152756
C       -1.21797613       9.70859806       2.60289481
C       -0.71341774      10.17229224       1.39058481
C       -0.51132694       9.28125620       0.33986521
C       -0.81940080       7.92785673       0.50814067
H       -3.11070452       0.19338582       2.41572144
H       -4.06162870       3.85265182       4.05476488
H       -0.66715766       3.58048105       1.40337184
H       -1.46650310       5.54513702       0.97924640
H       -1.91310293       8.04228043       3.73636900
H       -1.37693332      10.40098189       3.42658518
H       -0.47775465      11.22637288       1.26640066
H       -0.11529862       9.64913842      -0.60309685
C       -0.58952596       7.04691746      -0.60752217
C       -0.39700578       6.30913082      -1.54188979
Br      -0.08571694       5.11619222      -3.05268321
C        1.78922479      -1.78922479       1.78922479
C        2.77994143      -1.23045845       2.58307614
N        3.58544707      -1.95607865       3.39322786
C        3.38964561      -3.29913113       3.40147226
C        2.43771826      -3.94889081       2.62184344
C        1.60815849      -3.17004015       1.80915207
C        2.34017205      -5.42738979       2.70878912
O        2.67128764      -5.96370700       3.75920733
N        1.90956907      -6.05892921       1.55902758
C        1.71362199      -7.44529695       1.34600972
C        1.89897756      -8.40762107       2.34259769
C        1.69396229      -9.76523862       2.07026809
C        1.29740743     -10.17809863       0.80078873
C        1.10238499      -9.23373942      -0.20367606
C        1.30917377      -7.87793997       0.06828445
H        2.96075814      -0.15942160       2.59963204
H        4.04822401      -3.85305942       4.06776197
H        0.81428088      -3.61719053       1.21953914
H        1.76667642      -5.49606795       0.72814216
H        2.20559920      -8.13767108       3.34848208
H        1.84697075     -10.49941632       2.85811333
H        1.14018482     -11.23423808       0.59610530
H        0.79085619      -9.56227358      -1.19178957
C        1.09118040      -6.94106200      -1.00332115
C        0.90861095      -6.15642670      -1.90079084
Br       0.61341158      -4.88773778      -3.35192342
C       -0.00445707       0.01189536      -1.78238275
H       -0.66409135       0.67374010      -2.43557963
H        0.65740317      -0.63156657      -2.45157240
C       -0.90989263      -0.90692880      -0.91072765
C        0.90977584       0.90977584      -0.90977584
C       -0.00465871       1.77757030       0.00794375
H       -0.66225468       2.44313916      -0.64384735
H        0.64322798       2.43503045       0.67728295
C       -1.78241447       0.00034974      -0.00472694
H       -2.45427497      -0.65498947       0.64260836
H       -2.43311707       0.67328779      -0.65473579
C       -0.91132561       0.90220522       0.91563759
C       -0.01476271      -0.02253852       1.78660255
H       -0.67934791      -0.69751639       2.42135241
H        0.63392994       0.61504881       2.47327442
C        0.01484550      -1.77751727      -0.01636693
H        0.67870853      -2.42144646      -0.68295456
H       -0.62264859      -2.45592969       0.64226336
C        1.78714474       0.01002794       0.00389507
H        2.44202412       0.67113390       0.66197326
H        2.45385902      -0.65136977      -0.64189061
C        0.91606151      -0.90478549       0.90901405
