97
Properties=species:S:1:pos:R:3 pbc="F F F"
C        0.00000000       0.00000000       0.00000000
C        0.87932077       0.87932077      -0.87932077
C        0.93312344       0.67974603      -2.25089448
N        1.68539910       1.43345708      -3.08618533
C        2.41724420       2.42530118      -2.51799155
C        2.44418456       2.68358272      -1.15097315
C        1.64181541       1.89972205      -0.31610118
C        3.30485688       3.78654408      -0.65523792
O        3.52923706       4.72378888      -1.41146397
N        3.80086818       3.61928769       0.62234208
C        4.63430666       4.49774515       1.35683522
C        5.05223157       5.74093040       0.87367773
C        5.88059701       6.56431226       1.64515235
C        6.29834741       6.15825484       2.91001953
C        5.88803642       4.92551587       3.41081600
C        5.06218671       4.10255193       2.63905252
Br       4.53463851       2.43159181       3.38526852
H        0.35872616      -0.10446453      -2.73583807
H        3.00555018       3.01707982      -3.21670333
H        1.58282864       2.08932658       0.75085675
H        3.61533960       2.74319465       1.09735980
H        4.75301042       6.10442922      -0.10460064
H        6.19823094       7.52671272       1.25015534
H        6.94192940       6.80267837       3.50379164
H        6.21587633       4.61533606       4.39958427
C       -0.87932077      -0.87932077      -0.87932077
C       -1.72350741      -0.31565059      -1.82460596
N       -2.52003206      -1.04259838      -2.64241106
C       -2.46893298      -2.39143231      -2.50017163
C       -1.67148034      -3.04292845      -1.56433164
C       -0.84571084      -2.26535191      -0.74657589
C       -1.72449432      -4.52473317      -1.49741139
O       -2.00818100      -5.13574808      -2.52056082
N       -1.47667910      -5.06840181      -0.25273287
C       -1.45139452      -6.43647991       0.11265783
C       -1.64153217      -7.47737126      -0.80058082
C       -1.60992098      -8.81153717      -0.37829877
C       -1.38398306      -9.12273170       0.96013204
C       -1.18695748      -8.09970892       1.88393011
C       -1.22055349      -6.76713177       1.46199915
Br      -0.93952174      -5.41732376       2.77588370
H       -1.78644234       0.75990467      -1.96356204
H       -3.11558962      -2.94727333      -3.17647039
H       -0.16470190      -2.72140641      -0.03519016
H       -1.35525622      -4.43642220       0.53050397
H       -1.81915096      -7.28811383      -1.85477551
H       -1.76380326      -9.60747778      -1.10350729
H       -1.36094273     -10.16117484       1.28130144
H       -1.00902703      -8.34931218       2.92671109
C       -0.87932077       0.87932077       0.87932077
C       -1.61819629       0.32923053       1.91633713
N       -2.40845002       1.05799096       2.73860052
C       -2.46145445       2.39397956       2.50510291
C       -1.77463542       3.02909231       1.47501270
C       -0.95171943       2.25185527       0.65406394
C       -1.93566148       4.49590017       1.31507723
O       -2.19386801       5.15724160       2.31338030
N       -1.80861145       4.96603867       0.02316367
C       -1.90327402       6.30384930      -0.43190673
C       -2.10569499       7.39150621       0.42228304
C       -2.19540859       8.69198731      -0.08763898
C       -2.07997821       8.92271916      -1.45611465
C       -1.87264517       7.85255926      -2.32246815
C       -1.78504161       6.55350502      -1.81286051
Br      -1.49672817       5.13622343      -3.05198981
H       -1.59634491      -0.73574501       2.12949982
H       -3.09980374       2.95231732       3.18721227
H       -0.35240765       2.70053629      -0.13164546
H       -1.69473941       4.29002074      -0.72358570
H       -2.20019084       7.26538853       1.49646092
H       -2.35688410       9.52501660       0.59288763
H       -2.15087141       9.93536802      -1.84542330
H       -1.78132188       8.03956497      -3.38925872
C        0.87932077      -0.87932077       0.87932077
C        0.99245175      -0.63187671       2.23943550
N        1.74782826      -1.38254793       3.07466531
C        2.42077631      -2.42160325       2.51815736
C        2.38630072      -2.73057277       1.16186694
C        1.58201964      -1.94787573       0.32774327
C        3.18658287      -3.88283274       0.67722327
O        3.40507922      -4.79962309       1.45978759
N        3.63949462      -3.78140172      -0.62308256
C        4.41172690      -4.71717281      -1.35368311
C        4.80193044      -5.95682223      -0.83926842
C        5.56970738      -6.83875496      -1.60870542
C        5.95368867      -6.49541732      -2.90252328
C        5.57003615      -5.26713434      -3.43443421
C        4.80476712      -4.38570394      -2.66478493
Br       4.31075428      -2.72433725      -3.45412973
H        0.46597198       0.19080691       2.71493464
H        3.01314904      -3.00933691       3.21684738
H        1.47564764      -2.17401955      -0.72836871
H        3.46823988      -2.91686338      -1.12392881
H        4.52698454      -6.27265023       0.16240551
H        5.86668565      -7.79742694      -1.18932426
H        6.55023824      -7.18511895      -3.49454107
H        5.87121138      -5.00602210      -4.44560535
