65
Properties=species:S:1:pos:R:3 pbc="F F F"
C        0.00000000       0.00000000       0.00000000
N        0.07907823       3.33326875      -4.95375422
C        0.56335957       2.85411959      -4.01454086
C        1.15234105       2.28270083      -2.83698550
C        0.34581540       1.47353916      -2.02127321
C        0.88160733       0.88160733      -0.88160733
C        2.21641008       1.07588360      -0.54700056
C        3.01765748       1.88273136      -1.36110544
C        2.49665438       2.53821433      -2.49587802
N        3.35590097       3.23272511      -3.37225039
H       -0.69616604       1.30037940      -2.28645232
H        2.63575006       0.59740006       0.33397408
H        2.92369246       3.94686902      -3.95377381
H        4.21063697       3.56283313      -2.92687778
C        4.39805212       2.04346252      -0.98391035
C        5.55413263       2.17807486      -0.66800947
Br       7.42341704       2.39573163      -0.15722445
N       -4.95637473      -3.32933962      -0.08038685
C       -4.00512372      -2.86823944      -0.55865686
C       -2.84281312      -2.27396303      -1.15525123
C       -2.03009396      -1.46031353      -0.35022028
C       -0.88160733      -0.88160733      -0.88160733
C       -0.52374417      -1.11075370      -2.20479637
C       -1.33529842      -1.92142582      -3.00477005
C       -2.53195536      -2.48412081      -2.51467057
N       -3.25729058      -3.40509321      -3.29849268
H       -2.29271739      -1.29098569       0.69303740
H        0.38345564      -0.67159157      -2.61104011
H       -4.24200530      -3.51470134      -3.06762865
H       -3.10555179      -3.29493343      -4.29986267
C       -0.91741968      -2.14315711      -4.36484821
C       -0.56744623      -2.32885707      -5.50391366
Br      -0.00156877      -2.62911819      -7.34568617
N       -0.23532934       2.93700004       5.19377182
C       -0.67499452       2.57365359       4.18337192
C       -1.20589815       2.14571680       2.92041244
C       -0.39880887       1.33727932       2.10453959
C       -0.88160733       0.88160733       0.88160733
C       -2.16490678       1.21176064       0.46262682
C       -2.96679592       2.01758249       1.27711588
C       -2.49339049       2.53800542       2.49935082
N       -3.36674671       3.23226289       3.36186686
H        0.60098078       1.05788335       2.43376311
H       -2.54485863       0.83917382      -0.48485641
H       -2.93088309       3.86096332       4.03248887
H       -4.15338480       3.66583919       2.88112389
C       -4.29442109       2.32149001       0.80951389
C       -5.40630717       2.57601256       0.41789723
Br      -7.20413293       2.98755399      -0.21531380
N        5.29629862      -2.73781272       0.33198986
C        4.24704742      -2.44994590       0.73502670
C        2.95973594      -2.06931976       1.24297168
C        2.14604004      -1.25665294       0.43793480
C        0.88160733      -0.88160733       0.88160733
C        0.40983869      -1.31431653       2.11513902
C        1.22257627      -2.12354112       2.91537690
C        2.52785631      -2.48262543       2.52026499
N        3.27132053      -3.40817475       3.28138118
H        2.50018051      -0.92884876      -0.53836359
H       -0.58517355      -1.03406824       2.45028135
H        4.28158217      -3.37702912       3.16572400
H        2.99592225      -3.44281089       4.26161474
C        0.68659158      -2.56030139       4.17853203
C        0.23770440      -2.92608811       5.23642445
Br      -0.48810821      -3.51753431       6.94694702
