86
Properties=species:S:1:pos:R:3 pbc="F F F"
N        0.98898225       4.24317278      -5.86365824
C        1.47326360       3.76402361      -4.92444489
C        2.06224508       3.19260486      -3.74688952
C        1.25571942       2.38344319      -2.93117724
C        1.79151135       1.79151135      -1.79151135
C        3.12631411       1.98578762      -1.45690459
C        3.92756151       2.79263539      -2.27100947
C        3.40655840       3.44811836      -3.40578204
N        4.26580499       4.14262913      -4.28215442
H        0.21373798       2.21028343      -3.19635634
H        3.54565409       1.50730408      -0.57592995
H        3.83359648       4.85677305      -4.86367783
H        5.12054099       4.47273715      -3.83678181
C        5.30795615       2.95336654      -1.89381438
C        6.46403666       3.08797888      -1.57791349
Br       8.33332107       3.30563565      -1.06712848
N       -6.52799355      -2.68259574      -1.88522399
C       -5.38737428      -2.67656524      -2.09779257
C       -3.97971242      -2.64568515      -2.37634189
C       -3.16471838      -1.83483627      -1.57078520
C       -1.79151135      -1.79151135      -1.79151135
C       -1.21469900      -2.55474801      -2.79955930
C       -2.02887542      -3.36142774      -3.60090320
C       -3.42938524      -3.39267256      -3.43840101
N       -4.20882935      -4.31487562      -4.16688358
H       -3.60589991      -1.24823265      -0.76624519
H       -0.13973877      -2.53195223      -2.95719712
H       -5.19311181      -4.08290613      -4.27802941
H       -3.77969893      -4.60682942      -5.04353161
C       -1.38603587      -4.14617909      -4.62292211
C       -0.84765775      -4.80340834      -5.47886295
Br       0.02285414      -5.86609245      -6.86284688
N       -2.25287398       2.27777420       6.56516509
C       -2.37196380       2.37467372       5.41509458
C       -2.49733710       2.51245662       3.99194574
C       -1.68739549       1.70643601       3.17650835
C       -1.79151135       1.79151135       1.79151135
C       -2.70118639       2.66306699       1.20475293
C       -3.50664957       3.46521096       2.01934583
C       -3.39391342       3.44165810       3.42488729
N       -4.30969822       4.15762159       4.22326873
H       -0.98545467       1.00685983       3.62806326
H       -2.79218890       2.71364373       0.12305548
H       -4.00144910       4.38745032       5.16514795
H       -4.72582660       4.95665623       3.74757712
C       -4.44504793       4.34203738       1.36805176
C       -5.23095656       5.07637950       0.82259298
Br      -6.50170433       6.26374860      -0.05936774
N        6.15308991      -3.75380398       1.18891938
C        5.11910378      -3.43489588       1.60773243
C        3.85139158      -3.01591360       2.13443428
C        3.03786090      -2.20306330       1.32941566
C        1.79151135      -1.79151135       1.79151135
C        1.33744638      -2.18776661       3.04379332
C        2.14998833      -2.99725698       3.84396106
C        3.43855237      -3.39271055       3.42919589
N        4.17854941      -4.31780367       4.19423546
H        3.37768823      -1.90368888       0.33900063
H        0.35604750      -1.87907958       3.39376102
H        5.18651090      -4.31092943       4.05660703
H        3.92370928      -4.32576086       5.18058981
C        1.63229061      -3.39554887       5.12729759
C        1.19871878      -3.72911833       6.20209193
Br       0.49766979      -4.26847193       7.93994348
C       -0.00445707       0.01189536      -1.78238275
H       -0.66409135       0.67374010      -2.43557963
H        0.65740317      -0.63156657      -2.45157240
C       -0.90989263      -0.90692880      -0.91072765
C        0.90977584       0.90977584      -0.90977584
C       -0.00465871       1.77757030       0.00794375
H       -0.66225468       2.44313916      -0.64384735
H        0.64322798       2.43503045       0.67728295
C       -1.78241447       0.00034974      -0.00472694
H       -2.45427497      -0.65498947       0.64260836
H       -2.43311707       0.67328779      -0.65473579
C       -0.91132561       0.90220522       0.91563759
C       -0.01476271      -0.02253852       1.78660255
H       -0.67934791      -0.69751639       2.42135241
H        0.63392994       0.61504881       2.47327442
C        0.01484550      -1.77751727      -0.01636693
H        0.67870853      -2.42144646      -0.68295456
H       -0.62264859      -2.45592969       0.64226336
C        1.78714474       0.01002794       0.00389507
H        2.44202412       0.67113390       0.66197326
H        2.45385902      -0.65136977      -0.64189061
C        0.91606151      -0.90478549       0.90901405
