141
Properties=species:S:1:pos:R:3 pbc="F F F"
C        0.00000000       0.00000000       0.00000000
C       -0.10734230       0.27416477      -9.21572402
S        1.65061307       0.62468053      -8.96283277
C        1.67750268       0.87339001      -7.20385430
N        0.53266629       0.74909019      -6.49320596
N        0.54360592       0.94402437      -5.13772083
C        1.70619232       1.26768477      -4.53985715
C        2.83683069       1.37896257      -5.32722785
N        2.86558180       1.17922757      -6.65943981
O        4.05527266       1.57066165      -4.73174959
C        4.18902814       2.93819767      -4.34982765
H        4.00882826       3.58618946      -5.21966359
N        3.30280940       3.37310556      -3.25741580
C        2.52584976       2.48483578      -2.50897058
C        2.45158766       2.68719641      -1.11858433
C        1.64797155       1.88521714      -0.30683003
C        0.88150096       0.88150096      -0.88150096
C        0.90639315       0.68106084      -2.25937606
C        1.72112235       1.47641205      -3.09203365
C        5.64060797       3.10922273      -3.97862318
C        6.73724006       2.26800368      -3.95039492
C        7.82553588       3.03659134      -3.46935780
C        7.33018551       4.29773283      -3.23205635
O        6.00552389       4.35214756      -3.53304509
H       -0.28470623       0.09948010     -10.28042403
H       -0.72245103       1.12210604      -8.90185851
H       -0.40777709      -0.62326263      -8.66783447
H        3.80602385       4.04483995      -2.68012734
H        3.03015189       3.47995204      -0.64869447
H        1.62375854       2.06052695       0.76539003
H        0.28656210      -0.09960727      -2.69824945
H        6.74298194       1.22437708      -4.23703102
H        8.84326687       2.70669504      -3.31336313
C        8.09559684       5.40899006      -2.72921157
C        8.73662883       6.33966799      -2.30807907
Br       9.77312333       7.84449548      -1.62714343
C       -9.21625948      -0.26061664       0.09432963
S       -8.90881240      -1.99149744      -0.33781651
C       -7.16184648      -1.93626686      -0.65663365
N       -6.49241911      -0.76899898      -0.51354436
N       -5.14671153      -0.71654261      -0.76209696
C       -4.51724129      -1.83990857      -1.15658438
C       -5.26329171      -2.99666725      -1.28306215
N       -6.58400054      -3.08798322      -1.03226543
O       -4.62857776      -4.18110308      -1.54800306
C       -4.29817962      -4.24499014      -2.93388370
H       -5.20033462      -4.07524885      -3.53909785
N       -3.26037743      -3.29817074      -3.37478259
C       -2.50731304      -2.52677468      -2.48556840
C       -1.13042805      -2.38752807      -2.73941227
C       -0.31875420      -1.58351305      -1.93775146
C       -0.88150096      -0.88150096      -0.88150096
C       -2.24792209      -0.97086804      -0.62803993
C       -3.07975447      -1.78709841      -1.42271517
C       -3.87732668      -5.67221474      -3.17891246
C       -3.77131353      -6.79909987      -2.38522526
C       -3.27969017      -7.83553917      -3.21625567
C       -3.11413040      -7.28148137      -4.46436293
O       -3.46913517      -5.96918874      -4.45239262
H      -10.27905284      -0.13417379       0.31802873
H       -8.96201025       0.39984621      -0.73934948
H       -8.64424591       0.02642767       0.98102349
H       -2.69176655      -3.75034613      -4.08887846
H       -0.67104001      -2.91456775      -3.57319063
H        0.74356737      -1.50837265      -2.15409019
H       -2.67846892      -0.40087737       0.19414201
H       -4.01438312      -6.85778812      -1.33221881
H       -3.07023768      -8.85822631      -2.93486104
C       -2.62755300      -7.98114328      -5.62510220
C       -2.22004443      -8.56711012      -6.59722134
Br      -1.56113753      -9.51456896      -8.16905576
C        2.64873956       4.33866438       7.69262166
S        0.92857297       4.01325469       8.15344464
C        0.28447668       3.43872456       6.60049911
N        1.10428487       3.35182046       5.52742685
N        0.61478971       2.91470569       4.32543513
C       -0.68859520       2.58704090       4.23809815
C       -1.46829607       2.70094620       5.37377883
N       -1.01712197       3.11215934       6.57496787
O       -2.76003443       2.24612712       5.35152234
C       -3.58921863       3.19876529       4.68906954
H       -3.46998141       4.18559140       5.15910850
N       -3.34708684       3.34238627       3.24385765
C       -2.51262156       2.48358504       2.52344953
C       -2.94324980       2.06210687       1.25201173
C       -2.14272310       1.25628127       0.44101435
C       -0.88150096       0.88150096       0.88150096
C       -0.41346706       1.31342794       2.11993505
C       -1.21441655       2.11964164       2.95550986
C       -5.00444602       2.75779879       4.96620906
C       -5.57121874       1.71274572       5.67167419
C       -6.97433541       1.83586447       5.52128513
C       -7.18062449       2.94504178       4.73430842
O       -5.99318169       3.50935984       4.38817501
H        3.18596937       4.71276500       8.56840227
H        2.70451310       5.09818912       6.90783750
H        3.14120904       3.42225130       7.35575249
H       -4.23890111       3.51083895       2.78125108
H       -3.92129181       2.35883345       0.87867313
H       -2.51137205       0.93798162      -0.53045821
H        0.58523024       1.02523937       2.44519515
H       -5.03131973       0.95227155       6.22079877
H       -7.73738494       1.19112421       5.93481589
C       -8.46761932       3.44314003       4.32303912
C       -9.54547749       3.86029731       3.97860108
Br     -11.28828299       4.53480536       3.42167390
C        8.36805587      -3.19771954      -2.18322893
S        7.81416371      -4.58636872      -1.16240607
C        6.32523053      -3.90370882      -0.47419235
N        5.94122865      -2.65282562      -0.81909183
N        4.79757507      -2.11716593      -0.28938990
C        4.07977435      -2.85448179       0.57947811
C        4.53130290      -4.12405826       0.88765995
N        5.64210439      -4.68795422       0.37419057
O        3.75297377      -4.94639862       1.65831150
C        3.87611127      -4.57201605       3.02892614
H        4.93717110      -4.56048850       3.31702171
N        3.28788727      -3.26801134       3.37743215
C        2.49578273      -2.53031985       2.49355354
C        1.34572280      -1.90380993       3.00783566
C        0.53542765      -1.09679813       2.20779294
C        0.88150096      -0.88150096       0.88150096
C        2.03387457      -1.45880150       0.35415399
C        2.85755907      -2.28510032       1.14690866
C        3.23032441      -5.69005867       3.80807079
C        2.61364287      -6.87837846       3.46361733
C        2.18200949      -7.47657568       4.67289985
C        2.55870744      -6.62007138       5.68119587
O        3.19111907      -5.53142918       5.16816830
H        9.30224638      -3.47315403      -2.68020251
H        8.55647784      -2.31330251      -1.56826683
H        7.62839301      -2.96170637      -2.95330463
H        2.88651205      -3.33303190       4.31144718
H        1.06502863      -2.04404137       4.04972840
H       -0.35299971      -0.63821837       2.63367681
H        2.30194746      -1.26721365      -0.68395684
H        2.48740536      -7.25872728       2.45825740
H        1.65823259      -8.41513741       4.78995504
C        2.31639580      -6.83276601       7.08463667
C        2.11345980      -7.01089775       8.26001833
Br       1.78532945      -7.29892172      10.16051108
