182
Properties=species:S:1:pos:R:3 pbc="F F F"
C        1.06503610       0.01066451      -6.16617039
S        1.78648571      -1.60108867      -5.77600737
C        3.19087091      -1.08118334      -4.82371295
N        3.73464327      -1.98645494      -3.97943499
N        4.83112950      -1.64809971      -3.23082037
C        5.33394381      -0.40376265      -3.33904144
C        4.72154251       0.47072699      -4.21221721
N        3.66454528       0.16239452      -4.98955324
O        5.21433328       1.73723017      -4.37635411
C        5.00089487       2.55178388      -3.20927278
H        5.24913298       3.56742096      -3.54474749
C        3.54064535       2.55905076      -2.82240898
C        2.47715545       3.36376512      -3.18435099
C        1.33963114       2.85572900      -2.50971717
C        1.77684552       1.77684552      -1.77684552
O        3.11209867       1.59460053      -1.95019122
N        5.87774196       2.26726890      -2.06742429
C        5.84195770       3.24964233      -1.06797891
O        5.39404164       4.38187455      -1.27016834
C        6.28138900       2.87126207       0.33007467
C        6.84170487       1.20071219      -2.09141612
C        8.12446792       1.43802043      -1.55191726
C        9.09065077       0.43322393      -1.46790432
C        8.79459974      -0.83560344      -1.93435338
C        7.55634133      -1.09024662      -2.51472161
C        6.57020957      -0.07997211      -2.63117335
H        0.13332517      -0.14119944      -6.71807810
H        1.73876538       0.60116824      -6.79334820
H        0.83554301       0.56347392      -5.25070785
H        2.52051829       4.21005012      -3.85639305
H        0.32702266       3.23130610      -2.55616101
H        6.29313969       1.79059849       0.48617966
H        5.55934384       3.28600278       1.04058569
H        7.26259298       3.30163882       0.54189794
H        8.41463626       2.43080339      -1.21446308
H       10.06594156       0.65748759      -1.04234437
H        7.35335152      -2.08786344      -2.90640420
C        9.77927625      -1.88261240      -1.84612430
C       10.60394284      -2.75948242      -1.77223244
Br      11.93735896      -4.17730706      -1.65275556
C       -1.87004028       0.57220830      -5.94403902
S       -2.71737011       2.01606597      -5.26010028
C       -3.91109470       1.20500184      -4.22730765
N       -4.43989830       1.92398208      -3.21170710
N       -5.37917117       1.35662453      -2.39130352
C       -5.74212987       0.07772622      -2.60481895
C       -5.15326883      -0.59840315      -3.65281473
N       -4.25316023      -0.06248520      -4.50084763
O       -5.51122333      -1.89120233      -3.92549190
C       -5.04961325      -2.80147009      -2.91086820
H       -5.21928281      -3.79461174      -3.34740689
C       -3.56015002      -2.65914298      -2.70281209
C       -2.46734316      -3.26648586      -3.29144254
C       -1.31761664      -2.69399205      -2.69346862
C       -1.77684552      -1.77684552      -1.77684552
O       -3.13536971      -1.75539834      -1.76612236
N       -5.79347425      -2.77279671      -1.64616419
C       -5.50933692      -3.85221879      -0.79802323
O       -4.96245402      -4.88282142      -1.20080909
C       -5.79958773      -3.70289740       0.67990873
C       -6.87064977      -1.84912956      -1.41405386
C       -8.03302652      -2.31733793      -0.76404117
C       -9.09070631      -1.46743936      -0.43363334
C       -9.01081631      -0.12448803      -0.75804533
C       -7.89972873       0.35964159      -1.44072917
C       -6.82610511      -0.48917073      -1.80613497
H       -1.04472830       0.91092505      -6.57640058
H       -2.54733848      -0.02509546      -6.56084789
H       -1.45699589      -0.04876614      -5.14396275
H       -2.50024931      -4.02605679      -4.06065536
H       -0.28320693      -2.92292551      -2.90835733
H       -5.91735236      -2.65939079       0.97918462
H       -4.94544183      -4.09815061       1.23883150
H       -6.68626602      -4.28231216       0.94624432
H       -8.15680156      -3.37269767      -0.53040351
H       -9.96726043      -1.86836594       0.06985285
H       -7.86955004       1.41449398      -1.71683623
C      -10.09109442       0.76398498      -0.41567871
C      -10.99582734       1.50808113      -0.12894666
Br     -12.45870394       2.71122168       0.33467481
C       -5.15898765       3.31868977      -1.23580642
S       -3.99832224       4.23760088      -2.27451870
C       -2.98154098       4.96930893      -1.01744940
N       -1.74079001       5.36622681      -1.37939349
N       -0.91632865       5.95369567      -0.45617415
C       -1.35737948       6.10487530       0.80696781
C       -2.63017762       5.66683164       1.10747745
N       -3.48097025       5.11723584       0.21828697
O       -3.13182324       5.82480969       2.37128463
C       -2.47397138       4.96683283       3.32114733
H       -3.09560554       5.04259805       4.22309784
C       -2.52772183       3.52693126       2.86745200
C       -3.44364730       2.51212349       3.06950077
C       -2.95772431       1.38427910       2.36307390
C       -1.77684552       1.77684552       1.77684552
O       -1.50068136       3.07098600       2.08522305
N       -1.12093788       5.37594107       3.71555620
C       -0.62810146       4.69439079       4.83708668
O       -1.36419050       4.07306497       5.60882906
C        0.86974701       4.64378028       5.04854314
C       -0.47115721       6.52234569       3.14033028
C        0.25785731       7.38210560       3.99015732
C        0.97968154       8.47215820       3.49930235
C        0.97865479       8.73197970       2.14002477
C        0.23222980       7.93193406       1.28111205
C       -0.52569371       6.83533687       1.76038024
H       -5.83764216       2.75053430      -1.87797264
H       -5.75949306       3.99679725      -0.62300848
H       -4.62637381       2.61405789      -0.59070691
H       -4.35189405       2.58260978       3.65245763
H       -3.41582541       0.40779510       2.29086926
H        1.42807211       4.88418212       4.14144852
H        1.14251463       3.62078166       5.32649391
H        1.15402979       5.31214549       5.86421816
H        0.25010524       7.24108141       5.06892656
H        1.53059009       9.10812109       4.18824253
H        0.21741948       8.17212936       0.21718241
C        1.72547300       9.84806327       1.62019787
C        2.35093325      10.78278327       1.18484284
Br       3.36224958      12.29414645       0.48091059
C        5.51016749      -2.77565915      -1.04395564
S        4.52053445      -3.69061953      -2.24974956
C        3.47399456      -4.60776119      -1.14835524
N        2.30536217      -5.06961506      -1.64735390
N        1.46394332      -5.79913199      -0.84922514
C        1.81408246      -6.02380560       0.43133453
C        3.01587332      -5.51321151       0.87540189
N        3.88401148      -4.82215603       0.11032554
O        3.42672103      -5.73985023       2.16134630
C        2.62296145      -5.02303469       3.11595540
H        3.17473573      -5.12698805       4.05957766
C        2.58742863      -3.54947230       2.78520416
C        3.39257553      -2.48611694       3.14657909
C        2.86847510      -1.34359582       2.49300639
C        1.77684552      -1.77684552       1.77684552
O        1.59046558      -3.11081249       1.95561234
N        1.28343389      -5.57171961       3.35728165
C        0.64514999      -5.03182910       4.48259985
O        1.26038714      -4.42310147       5.36259592
C       -0.86351910      -5.11968351       4.56641198
C        0.78383872      -6.71203617       2.63795829
C        0.06673597      -7.69792923       3.34974042
C       -0.51604147      -8.79538131       2.71243918
C       -0.38378317      -8.93513865       1.34199420
C        0.35652552      -8.00636050       0.61793030
C        0.97550687      -6.89851681       1.24738714
H        6.18601314      -2.10140769      -1.57721700
H        6.11643638      -3.45429219      -0.43744674
H        4.86846089      -2.17461129      -0.39334740
H        4.25399620      -2.53418773       3.79877752
H        3.24425498      -0.33105041       2.53918438
H       -1.32453130      -5.32417707       3.59791276
H       -1.24552631      -4.14980953       4.90047772
H       -1.15291053      -5.87700326       5.29824113
H       -0.02405566      -7.65105117       4.43290722
H       -1.06287930      -9.53082061       3.29783222
H        0.47715655      -8.15120222      -0.45646648
C       -0.98680094     -10.05791884       0.67167025
C       -1.49182833     -10.99824725       0.11027394
Br      -2.30841490     -12.51867877      -0.79745641
C       -0.00445707       0.01189536      -1.78238275
H       -0.66409135       0.67374010      -2.43557963
H        0.65740317      -0.63156657      -2.45157240
C       -0.90989263      -0.90692880      -0.91072765
C        0.90977584       0.90977584      -0.90977584
C       -0.00465871       1.77757030       0.00794375
H       -0.66225468       2.44313916      -0.64384735
H        0.64322798       2.43503045       0.67728295
C       -1.78241447       0.00034974      -0.00472694
H       -2.45427497      -0.65498947       0.64260836
H       -2.43311707       0.67328779      -0.65473579
C       -0.91132561       0.90220522       0.91563759
C       -0.01476271      -0.02253852       1.78660255
H       -0.67934791      -0.69751639       2.42135241
H        0.63392994       0.61504881       2.47327442
C        0.01484550      -1.77751727      -0.01636693
H        0.67870853      -2.42144646      -0.68295456
H       -0.62264859      -2.45592969       0.64226336
C        1.78714474       0.01002794       0.00389507
H        2.44202412       0.67113390       0.66197326
H        2.45385902      -0.65136977      -0.64189061
C        0.91606151      -0.90478549       0.90901405
