190
Properties=species:S:1:pos:R:3 pbc="F F F"
C        9.96998094       6.80772013      -4.84555255
C        8.69411689       6.02495397      -4.89736413
C        8.57603949       4.81913495      -4.19853613
C        7.40455967       4.06434610      -4.28358175
C        6.33177984       4.48007151      -5.08811324
C        6.45717574       5.69180338      -5.78563602
C        7.62840173       6.45111469      -5.69898689
C        5.03216753       3.67698707      -5.16076743
H        4.53772018       3.90723275      -6.11533860
O        4.19530095       4.25493013      -4.11498816
C        3.40656660       3.40313204      -3.38720645
C        2.75163694       3.95057492      -2.28430178
C        1.94412709       3.14439538      -1.48153988
C        1.79298467       1.79298467      -1.79298467
C        2.43282475       1.24002213      -2.90280676
C        3.24890583       2.04720614      -3.70265859
C        3.92914293       1.57207664      -4.94258619
H        3.27891699       1.83005087      -5.79481174
C        4.36687235       0.12496774      -5.09334651
C        5.48246623       0.27405302      -6.10456714
N        5.94451759       1.54888291      -6.13384149
N        5.22124309       2.23077342      -5.04480159
C        6.05478286      -0.68414665      -6.99224326
C        7.06240637      -0.51664306      -7.93395896
C        7.38060999      -1.70753929      -8.64877877
C        6.60257334      -2.75002434      -8.22252660
Br       6.72624949      -4.48414390      -8.92457370
S        5.51677057      -2.32473842      -6.99849744
H       10.48108649       6.66159389      -3.88775241
H        9.77466793       7.88025345      -4.94936793
H       10.63733886       6.48910826      -5.65284907
H        9.39354225       4.44439813      -3.58938414
H        7.32239227       3.11992544      -3.74784110
H        5.63650627       6.03867681      -6.40804361
H        7.70219283       7.37399628      -6.26669740
H        2.88636208       5.00189982      -2.05065692
H        1.44645338       3.57680372      -0.61960517
H        2.30634938       0.18954462      -3.14741925
H        4.75431117      -0.30503070      -4.16137069
H        3.54707476      -0.49956712      -5.46158940
H        7.54359638       0.44213950      -8.08700428
H        8.13616102      -1.77321103      -9.42003145
C       -4.70192702      -9.86622158      -7.05510503
C       -4.77491412      -8.63252331      -6.20899757
C       -4.02395390      -8.53685830      -5.03289838
C       -4.12658316      -7.40762629      -4.21827806
C       -4.99995511      -6.35739621      -4.54261326
C       -5.74956092      -6.46002165      -5.72503258
C       -5.64556605      -7.58870969      -6.54422755
C       -5.09385050      -5.10198106      -3.67409047
H       -6.08070219      -4.64481417      -3.83477517
O       -4.11810490      -4.18855912      -4.25855522
C       -3.38708230      -3.40577577      -3.40404702
C       -2.34431987      -2.67249146      -3.96970231
C       -1.54161241      -1.86515269      -3.16329725
C       -1.79298467      -1.79298467      -1.79298467
C       -2.84308417      -2.51181289      -1.22075658
C       -3.64253609      -3.32751299      -2.02872148
C       -4.82437435      -4.08939435      -1.53003707
H       -5.71777818      -3.47047812      -1.71552330
C       -4.88313933      -4.60132314      -0.10072412
C       -5.84708779      -5.75706801      -0.25693059
N       -5.91731702      -6.15976473      -1.55016023
N       -4.89819877      -5.35267592      -2.24594341
C       -6.65879642      -6.41659385       0.71251079
C       -7.55936434      -7.46033785       0.53997993
C       -8.19908190      -7.86874185       1.74597428
C       -7.75901747      -7.12038844       2.80433032
Br      -8.36840100      -7.35953671       4.56125843
S       -6.60959184      -5.95699445       2.37605670
H       -3.71520864     -10.33590838      -6.97931578
H       -4.86737861      -9.62621366      -8.11069705
H       -5.46043066     -10.58665253      -6.73221300
H       -3.35948539      -9.34008502      -4.72775410
H       -3.54950161      -7.34355891      -3.29709830
H       -6.42603303      -5.65559259      -6.00160107
H       -6.25387726      -7.64700087      -7.44200838
H       -2.15658502      -2.74616404      -5.03616975
H       -0.72624101      -1.30599677      -3.61062449
H       -3.04141647      -2.44687050      -0.15502628
H       -3.91402455      -4.96219792       0.26557131
H       -5.25823866      -3.83078081       0.57992243
H       -7.73664542      -7.90302071      -0.43307403
H       -8.92992740      -8.66353991       1.81048586
C       -4.37788454       9.44660880       7.79876029
C       -4.48318404       8.36202881       6.77122214
C       -3.58003123       8.30914392       5.70453543
C       -3.70532842       7.32722940       4.71992970
C       -4.74965972       6.38984753       4.76045733
C       -5.65153275       6.44850169       5.83458070
C       -5.52567263       7.42906701       6.82376366
C       -4.87487390       5.29018523       3.70486289
H       -5.92652138       4.97266294       3.66110721
O       -4.13031269       4.16845909       4.26644746
C       -3.38720572       3.40313616       3.40656321
C       -2.55023394       2.45001182       3.98626788
C       -1.74757347       1.64325995       3.17922893
C       -1.79298467       1.79298467       1.79298467
C       -2.63805021       2.73395168       1.20365175
C       -3.43665286       3.54818438       2.01393331
C       -4.41629243       4.54177010       1.48574324
H       -5.40170261       4.04822953       1.45384745
C       -4.18654887       5.24171278       0.15692495
C       -5.00108156       6.50064006       0.35936477
N       -5.21489925       6.73415571       1.67818702
N       -4.43084371       5.69512514       2.37084925
C       -5.55961953       7.39965297      -0.59639302
C       -6.32945534       8.53701525      -0.38674832
C       -6.71659265       9.19511792      -1.58986109
C       -6.22253951       8.53521023      -2.68267415
Br      -6.51787577       9.09601910      -4.44721558
S       -5.31710477       7.16277815      -2.28935333
H       -3.33773579       9.76514722       7.92754978
H       -4.73374675       9.09692910       8.77361346
H       -4.97547233      10.31131068       7.49251318
H       -2.77597678       9.03417421       5.61717353
H       -3.00736982       7.29814846       3.88464053
H       -6.46311505       5.72792774       5.89218390
H       -6.25138668       7.46038939       7.63111044
H       -2.52030449       2.35184120       5.06677313
H       -1.09200031       0.91124150       3.63962045
H       -2.67731155       2.84219958       0.12380212
H       -3.13348932       5.49494794      -0.01778609
H       -4.55162080       4.63507060      -0.67759435
H       -6.59365434       8.86859609       0.61048973
H       -7.31688542      10.09411374      -1.62801771
C        9.37409206      -7.90367767       4.34548390
C        8.31331534      -6.85165262       4.45146704
C        8.26342540      -5.80288391       3.52740126
C        7.30480695      -4.79551661       3.65216396
C        6.38891745      -4.79488077       4.71616637
C        6.44439441      -5.85123032       5.63899041
C        7.40155832      -6.86315614       5.51378884
C        5.31405975      -3.71408553       4.84177675
H        5.01964853      -3.64206342       5.89857959
O        4.16564388      -4.26718939       4.13238597
C        3.40273132      -3.40688924       3.38728453
C        2.42053221      -3.98354422       2.58243721
C        1.61387213      -3.17642128       1.77976894
C        1.79298467      -1.79298467       1.79298467
C        2.76339953      -1.20628401       2.60597010
C        3.57738538      -2.01688861       3.40449656
C        4.60196397      -1.48964223       4.35219956
H        4.12997631      -1.42714196       5.34666133
C        5.32410075      -0.18081286       4.08027299
C        6.59541997      -0.39284493       4.87282150
N        6.80620974      -1.71160360       5.10942865
N        5.73692997      -2.39827628       4.36161184
C        7.52541771       0.55511243       5.39257420
C        8.67413808       0.33751138       6.14309556
C        9.36481711       1.53424995       6.49128231
C        8.71729071       2.63028586       5.98807074
Br       9.32033321       4.38836564       6.23471172
S        7.31835962       2.24732817       5.11949815
H        9.66801215      -8.06048181       3.30193883
H        9.01199135      -8.86345405       4.72884392
H       10.25726021      -7.60342758       4.91860839
H        8.97306135      -5.74730861       2.70695456
H        7.27826058      -3.97432669       2.93757154
H        5.73998270      -5.87699855       6.46624545
H        7.43150223      -7.65589216       6.25549212
H        2.29956205      -5.06213767       2.57721910
H        0.85894399      -3.63472641       1.14919187
H        2.89462503      -0.12836557       2.62032265
H        5.55871432      -0.03314219       3.01879465
H        4.74254002       0.67358516       4.44014219
H        8.99061956      -0.66082457       6.42129602
H       10.27680962       1.56586107       7.07203290
C       -0.00445707       0.01189536      -1.78238275
H       -0.66409135       0.67374010      -2.43557963
H        0.65740317      -0.63156657      -2.45157240
C       -0.90989263      -0.90692880      -0.91072765
C        0.90977584       0.90977584      -0.90977584
C       -0.00465871       1.77757030       0.00794375
H       -0.66225468       2.44313916      -0.64384735
H        0.64322798       2.43503045       0.67728295
C       -1.78241447       0.00034974      -0.00472694
H       -2.45427497      -0.65498947       0.64260836
H       -2.43311707       0.67328779      -0.65473579
C       -0.91132561       0.90220522       0.91563759
C       -0.01476271      -0.02253852       1.78660255
H       -0.67934791      -0.69751639       2.42135241
H        0.63392994       0.61504881       2.47327442
C        0.01484550      -1.77751727      -0.01636693
H        0.67870853      -2.42144646      -0.68295456
H       -0.62264859      -2.45592969       0.64226336
C        1.78714474       0.01002794       0.00389507
H        2.44202412       0.67113390       0.66197326
H        2.45385902      -0.65136977      -0.64189061
C        0.91606151      -0.90478549       0.90901405
