177
Properties=species:S:1:pos:R:3 pbc="F F F"
C        0.00000000       0.00000000       0.00000000
C        9.06007692       5.89781611      -3.93564853
C        7.78421287       5.11504995      -3.98746011
C        7.66613547       3.90923093      -3.28863211
C        6.49465565       3.15444208      -3.37367772
C        5.42187581       3.57016748      -4.17820922
C        5.54727172       4.78189935      -4.87573200
C        6.71849770       5.54121066      -4.78908286
C        4.12226351       2.76708304      -4.25086341
H        3.62781615       2.99732873      -5.20543458
O        3.28539692       3.34502611      -3.20508413
C        2.49666257       2.49322802      -2.47730242
C        1.84173291       3.04067090      -1.37439775
C        1.03422306       2.23449136      -0.57163585
C        0.88308065       0.88308065      -0.88308065
C        1.52292072       0.33011811      -1.99290274
C        2.33900180       1.13730212      -2.79275457
C        3.01923891       0.66217262      -4.03268217
H        2.36901296       0.92014685      -4.88490771
C        3.45696833      -0.78493629      -4.18344248
C        4.57256220      -0.63585100      -5.19466312
N        5.03461356       0.63897889      -5.22393746
N        4.31133906       1.32086940      -4.13489756
C        5.14487884      -1.59405067      -6.08233924
C        6.15250235      -1.42654708      -7.02405493
C        6.47070597      -2.61744331      -7.73887475
C        5.69266931      -3.65992836      -7.31262258
S        4.60686655      -3.23464244      -6.08859342
H        9.57118247       5.75168987      -2.97784839
H        8.86476391       6.97034943      -4.03946391
H        9.72743484       5.57920423      -4.74294505
H        8.48363822       3.53449410      -2.67948012
H        6.41248825       2.21002141      -2.83793708
H        4.72660225       5.12877278      -5.49813958
H        6.79228880       6.46409226      -5.35679338
H        1.97645805       4.09199580      -1.14075290
H        0.53654936       2.66689969       0.29029886
H        1.39644536      -0.72035940      -2.23751522
H        3.84440715      -1.21493473      -3.25146667
H        2.63717074      -1.40947114      -4.55168538
H        6.63369235      -0.46776452      -7.17710025
H        7.22625700      -2.68311505      -8.51012743
C        5.78765650      -4.99178682      -7.85181687
C        5.86720826      -6.10721828      -8.30339208
Br       5.99583674      -7.91077661      -9.03355102
C       -3.32026549      -7.97496126      -7.59831481
C       -3.40941587      -7.06616286      -6.41114420
C       -2.36784390      -7.01723136      -5.47892325
C       -2.46951900      -6.20631184      -4.34694460
C       -3.62302268      -5.44412717      -4.10310266
C       -4.66371959      -5.49751956      -5.04366392
C       -4.56237842      -6.30642192      -6.17999089
C       -3.72935473      -4.52736751      -2.88348771
H       -4.79449543      -4.38440021      -2.65168382
O       -3.23630959      -3.23962867      -3.35956891
C       -2.47816375      -2.49032071      -2.49870855
C       -1.87498759      -1.35099523      -3.03081874
C       -1.07219712      -0.54491214      -2.22324102
C       -0.88308065      -0.88308065      -0.88308065
C       -1.49431587      -2.01303300      -0.33859269
C       -2.29263720      -2.82538301      -1.15103827
C       -3.03804236      -4.01944950      -0.65660183
H       -4.06359935      -3.69236603      -0.41810214
C       -2.51512499      -4.84625168       0.50590215
C       -3.17615290      -6.17736681       0.22214539
N       -3.55764426      -6.26333414      -1.07655152
N       -3.03512224      -5.03301746      -1.69896632
C       -3.45598142      -7.27087739       1.09369140
C       -4.09054650      -8.47512777       0.81566408
C       -4.19652420      -9.33929864       1.94368544
C       -3.63227801      -8.76259439       3.04950888
S       -2.98918193      -7.22701654       2.75538095
H       -2.27935210      -8.10937293      -7.91199569
H       -3.86546830      -7.55764889      -8.45146005
H       -3.74299257      -8.95441334      -7.35217821
H       -1.47063841      -7.61478153      -5.61219251
H       -1.66133233      -6.18149720      -3.61761721
H       -5.56311553      -4.90945496      -4.88094413
H       -5.39313402      -6.34142916      -6.87861125
H       -2.02527808      -1.10639648      -4.07753219
H       -0.59878855       0.33409883      -2.64846047
H       -1.35192089      -2.26884870       0.70716841
H       -1.42349315      -4.95515134       0.49770540
H       -2.82471061      -4.41970679       1.46503243
H       -4.45874484      -8.70768942      -0.17659383
H       -4.65864966     -10.31704550       1.92242579
C       -3.58814071      -9.39969561       4.34014978
C       -3.55117571      -9.93326789       5.42106153
Br      -3.49140644     -10.79600912       7.16880442
C       -3.33202537       8.07721373       7.48430246
C       -3.42725673       7.13767930       6.32178690
C       -2.40742646       7.09084758       5.36572447
C       -2.51625524       6.25018896       4.25633124
C       -3.65621602       5.45483794       4.05919855
C       -4.67508144       5.50635358       5.02346805
C       -4.56643273       6.34509494       6.13726355
C       -3.76920071       4.50613915       2.86487010
H       -4.83575873       4.33205331       2.66276742
O       -3.23343856       3.24265170       3.35941691
C       -2.47796999       2.49081776       2.49840527
C       -1.83444182       1.37966945       3.04269030
C       -1.03168521       0.57347080       2.23519426
C       -0.88308065       0.88308065       0.88308065
C       -1.53472960       1.98436454       0.32684743
C       -2.33305689       2.79705293       1.13894867
C       -3.11917140       3.96042777       0.63449452
H       -4.14181089       3.60311789       0.42913875
C       -2.64469868       4.77073952      -0.55996368
C       -3.33120857       6.09220165      -0.29203591
N       -3.68347705       6.20085254       1.01320032
N       -3.11615942       4.99905083       1.65189578
C       -3.65858558       7.15697700      -1.18239516
C       -4.31567198       8.35214227      -0.91780405
C       -4.46981551       9.18558279      -2.06326091
C       -3.91823622       8.59559468      -3.16846738
S       -3.23078742       7.08354281      -2.85351271
H       -2.28750920       8.24417804       7.76903348
H       -3.84623020       7.66802493       8.36032212
H       -3.78443699       9.03992333       7.22522380
H       -1.52222131       7.71280808       5.46258305
H       -1.72540485       6.22684888       3.50819301
H       -5.56341398       4.89309783       4.89700281
H       -5.38082445       6.37732743       6.85502256
H       -1.95356866       1.15730266       4.09833543
H       -0.52679726      -0.28324778       2.66960071
H       -1.42374608       2.21777592      -0.72792083
H       -1.55618517       4.90592464      -0.58117071
H       -2.96660856       4.31349125      -1.50071484
H       -4.66559319       8.60009914       0.07733575
H       -4.95515543      10.15220679      -2.05409285
C       -3.92067568       9.20170394      -4.47469309
C       -3.92271873       9.70932045      -5.56865712
Br      -3.92602216      10.53009342      -7.33750444
C        9.13883563      -5.67205335       4.08265258
C        7.82779947      -4.94842023       4.11050323
C        7.68563078      -3.71844814       3.45991958
C        6.47860113      -3.01972155       3.52445276
C        5.39190806      -3.51750591       4.26083854
C        5.54170507      -4.75300323       4.91019477
C        6.74875554      -5.45618179       4.84385389
C        4.05534794      -2.77556633       4.30929568
H        3.53095774      -3.06998314       5.22963858
O        3.29157411      -3.34127337       3.20265969
C        2.49734547      -2.49235837       2.47748918
C        1.91624427      -3.01716054       1.32339675
C        1.10858904      -2.21119332       0.52056791
C        0.88308065      -0.88308065       0.88308065
C        1.44857248      -0.35373623       2.04363286
C        2.26495360      -1.16020304       2.84390185
C        2.86865238      -0.71267908       4.13276224
H        2.19447676      -1.03688282       4.94270794
C        3.23348539       0.74371829       4.36570743
C        4.30984689       0.59745943       5.41898685
N        4.82743234      -0.65618298       5.41391460
N        4.18360635      -1.31875596       4.26474372
C        4.79922336       1.53837714       6.37232119
C        5.77167018       1.37220696       7.35054697
C        6.00438438       2.54218495       8.12993798
C        5.19914289       3.56822591       7.71444655
S        4.18773025       3.15216528       6.42525255
H        9.68379908      -5.46072321       3.15619843
H        8.98796233      -6.75563743       4.13097748
H        9.75550050      -5.36171285       4.93237077
H        8.51094293      -3.28147088       2.90519863
H        6.37704261      -2.05646202       3.02694211
H        4.71139708      -5.16290901       5.47920853
H        6.83959475      -6.39975451       5.37382517
H        2.10841422      -4.05000963       1.05078290
H        0.66879252      -2.62528537      -0.38092770
H        1.26419952       0.67812789       2.32752955
H        3.64105631       1.23183876       3.47172154
H        2.37107998       1.31485615       4.72316115
H        6.28868998       0.42921700       7.48355510
H        6.72208014       2.60553289       8.93672213
C        5.21030327       4.87717334       8.31455661
C        5.21965009       5.97341681       8.81714878
Br       5.23476310       7.74594978       9.62979782
