154
Properties=species:S:1:pos:R:3 pbc="F F F"
C        1.79232429       1.79232429      -1.79232429
C        3.17074894       1.81666612      -1.58104575
C        3.98021895       2.60926612      -2.39320271
C        3.40633400       3.38118457      -3.40458501
C        2.01805040       3.37020433      -3.60675157
C        1.20843086       2.55738323      -2.80361427
C        1.46187537       4.20412507      -4.71321982
O        2.17758064       4.39977583      -5.68812164
N        0.18693891       4.70210047      -4.50024492
C       -0.60399754       5.49744844      -5.37895940
C       -0.12606717       5.85454761      -6.64393854
C       -0.88351295       6.64344481      -7.50140401
C       -2.14303270       7.08836284      -7.11204186
C       -2.68329501       6.74672187      -5.84887930
C       -3.96816215       7.17728422      -5.43063576
C       -4.50133475       6.83244085      -4.19131517
C       -3.76288408       6.04398187      -3.33045708
C       -2.49219689       5.60579592      -3.71026669
C       -1.90774402       5.93649085      -4.96476486
H        3.62425773       1.21513255      -0.79693985
H        5.05755833       2.62297492      -2.24486338
H        4.04564753       3.99180642      -4.04099368
H        0.13910171       2.48586588      -2.97688119
H       -0.20222909       4.53629310      -3.58724485
H        0.84701420       5.53845066      -7.00448356
H       -0.47356641       6.90452833      -8.47431589
H       -4.58736617       7.79703638      -6.07565264
H       -5.49132537       7.18004761      -3.90806300
H       -4.17033478       5.76484745      -2.36208479
H       -1.97360953       4.98606041      -2.98649091
C       -2.84231083       7.90214577      -8.07244149
C       -3.42795627       8.58368896      -8.87677618
Br      -4.37489541       9.68568667     -10.17731735
C       -1.79232429      -1.79232429      -1.79232429
C       -1.84556716      -1.55688174      -3.16601190
C       -2.63812457      -2.36873031      -3.97583291
C       -3.38122409      -3.40412715      -3.40675235
C       -3.34132186      -3.63088074      -2.02280370
C       -2.52838576      -2.82768297      -1.21335964
C       -4.14502402      -4.76214566      -1.47205059
O       -4.33620438      -5.72748303      -2.20179070
N       -4.62340934      -4.58114167      -0.18473329
C       -5.38834924      -5.48822675       0.60416569
C       -5.73139803      -6.75074640       0.10972544
C       -6.49088015      -7.63587227       0.86541655
C       -6.91966416      -7.27729546       2.13958761
C       -6.59089977      -6.01798946       2.69658307
C       -7.00538777      -5.63073278       3.99636272
C       -6.67312446      -4.39507566       4.54577885
C       -5.91379488      -3.50690633       3.80914634
C       -5.49211535      -3.85585650       2.52410613
C       -5.81089790      -5.10551031       1.92289652
H       -1.26653389      -0.75394797      -3.61584827
H       -2.67412279      -2.20140266      -5.04987118
H       -3.99190731      -4.04001376      -4.04652656
H       -2.43429761      -3.01873290      -0.14881827
H       -4.46690676      -3.67238413       0.21798202
H       -5.42668760      -7.08799154      -0.87526928
H       -6.74193401      -8.60588681       0.44254301
H       -7.60210329      -6.29792132       4.61470176
H       -7.00764247      -4.13597522       5.54683245
H       -5.64466025      -2.54105616       4.22911895
H       -4.89499234      -3.11173632       2.00778686
C       -7.70324145      -8.26473420       2.83569922
C       -8.35948744      -9.09171414       3.41869269
Br      -9.42058169     -10.42887075       4.36134383
C       -1.79232429       1.79232429       1.79232429
C       -2.93540540       2.38109817       1.25195724
C       -3.75029348       3.17483637       2.05755793
C       -3.41227478       3.38438929       3.39543951
C       -2.25352738       2.80624549       3.93523342
C       -1.44715325       1.99207543       3.13019969
C       -1.95033753       3.05268844       5.37619430
O       -2.89854047       3.23721239       6.12972525
N       -0.60507680       3.07878149       5.70542601
C       -0.01831844       3.26339077       6.99070108
C       -0.82009568       3.42744964       8.12487366
C       -0.25697250       3.62431372       9.38004965
C        1.12613427       3.65508673       9.52841954
C        1.98681276       3.48118178       8.41793714
C        3.39945912       3.49732481       8.54189213
C        4.24413187       3.31695171       7.44960143
C        3.69930376       3.11431521       6.19654341
C        2.31155942       3.09618805       6.03923710
C        1.41186449       3.27901803       7.12635815
H       -3.20592075       2.21908008       0.21132930
H       -4.65132097       3.62587085       1.64820480
H       -4.05802817       3.99890558       4.02151388
H       -0.57766333       1.48598711       3.53819833
H        0.03708774       3.02584537       4.93255123
H       -1.90359043       3.41264341       8.07371458
H       -0.91492234       3.75413620      10.23621926
H        3.87398454       3.65050552       9.50880187
H        5.32225176       3.33329578       7.58574122
H        4.34861504       2.96815010       5.33706240
H        1.95590578       2.92630687       5.02854070
C        1.60574956       3.86874061      10.86928538
C        2.00742737       4.04767572      11.99226052
Br       2.65690641       4.33699867      13.80801635
C        1.79232429      -1.79232429       1.79232429
C        1.33652976      -2.17963582       3.05229523
C        2.13255671      -2.99617987       3.85395120
C        3.38388618      -3.41191077       3.39630663
C        3.85018486      -3.00884184       2.13597960
C        3.04051240      -2.20572182       1.32319416
C        5.18983720      -3.49661444       1.69276862
O        5.56490655      -4.58268142       2.11789014
N        5.89001423      -2.63906917       0.86020089
C        7.16724278      -2.84284630       0.26232122
C        7.87006644      -4.03443242       0.46792012
C        9.12339867      -4.23568856      -0.09775136
C        9.69963269      -3.24723553      -0.88949621
C        9.02848172      -2.02678796      -1.14296352
C        9.58738123      -1.00683856      -1.95446197
C        8.92144050       0.18915368      -2.20986555
C        7.67242023       0.40140860      -1.65945676
C        7.09485643      -0.58157030      -0.85256101
C        7.74047856      -1.81610613      -0.56307300
H        0.36131850      -1.86178698       3.41322465
H        1.77875316      -3.31488829       4.83175518
H        3.99720971      -4.05680117       4.02443675
H        3.35256922      -1.92817896       0.32110060
H        5.47459159      -1.73463719       0.71208008
H        7.47373026      -4.84188136       1.07433680
H        9.64029734      -5.17369703       0.09128344
H       10.56683399      -1.13014022      -2.41165136
H        9.38208220       0.94581388      -2.83948307
H        7.14113049       1.32936652      -1.85516651
H        6.11082583      -0.34816787      -0.46005190
C       11.00112030      -3.55469329      -1.42353716
C       12.09111617      -3.81218916      -1.87079645
Br      13.85354731      -4.22853821      -2.59397690
C       -0.00445707       0.01189536      -1.78238275
H       -0.66409135       0.67374010      -2.43557963
H        0.65740317      -0.63156657      -2.45157240
C       -0.90989263      -0.90692880      -0.91072765
C        0.90977584       0.90977584      -0.90977584
C       -0.00465871       1.77757030       0.00794375
H       -0.66225468       2.44313916      -0.64384735
H        0.64322798       2.43503045       0.67728295
C       -1.78241447       0.00034974      -0.00472694
H       -2.45427497      -0.65498947       0.64260836
H       -2.43311707       0.67328779      -0.65473579
C       -0.91132561       0.90220522       0.91563759
C       -0.01476271      -0.02253852       1.78660255
H       -0.67934791      -0.69751639       2.42135241
H        0.63392994       0.61504881       2.47327442
C        0.01484550      -1.77751727      -0.01636693
H        0.67870853      -2.42144646      -0.68295456
H       -0.62264859      -2.45592969       0.64226336
C        1.78714474       0.01002794       0.00389507
H        2.44202412       0.67113390       0.66197326
H        2.45385902      -0.65136977      -0.64189061
C        0.91606151      -0.90478549       0.90901405
