133
Properties=species:S:1:pos:R:3 pbc="F F F"
C        0.00000000       0.00000000       0.00000000
C        0.88242027       0.88242027      -0.88242027
C        2.26084491       0.90676210      -0.67114172
C        3.07031493       1.69936210      -1.48329868
C        2.49642998       2.47128054      -2.49468099
C        1.10814637       2.46030030      -2.69684755
C        0.29852684       1.64747921      -1.89371025
C        0.55197134       3.29422104      -3.80331580
O        1.26767662       3.48987180      -4.77821761
N       -0.72296512       3.79219645      -3.59034090
C       -1.51390156       4.58754441      -4.46905537
C       -1.03597119       4.94464358      -5.73403452
C       -1.79341697       5.73354078      -6.59149999
C       -3.05293673       6.17845882      -6.20213784
C       -3.59319904       5.83681784      -4.93897528
C       -4.87806617       6.26738020      -4.52073173
C       -5.41123878       5.92253683      -3.28141114
C       -4.67278811       5.13407784      -2.42055306
C       -3.40210091       4.69589190      -2.80036266
C       -2.81764805       5.02658683      -4.05486083
H        2.71435371       0.30522852       0.11296418
H        4.14765431       1.71307089      -1.33495935
H        3.13574350       3.08190240      -3.13108966
H       -0.77080231       1.57596185      -2.06697716
H       -1.11213311       3.62638908      -2.67734082
H       -0.06288982       4.62854663      -6.09457953
H       -1.38347043       5.99462431      -7.56441186
H       -5.49727020       6.88713236      -5.16574861
H       -6.40122939       6.27014359      -2.99815897
H       -5.08023880       4.85494342      -1.45218077
H       -2.88351355       4.07615639      -2.07658688
C       -3.75221486       6.99224174      -7.16253747
C       -4.33786030       7.67378494      -7.96687216
Br      -5.28479943       8.77578265      -9.26741333
C       -0.88242027      -0.88242027      -0.88242027
C       -0.45889440      -1.20941874      -2.17043560
C       -1.25441403      -2.02574294      -2.97281874
C       -2.47345850      -2.50154301      -2.48739000
C       -2.90800709      -2.15919480      -1.19809234
C       -2.09799689      -1.35617420      -0.38554521
C       -4.21329296      -2.70960915      -0.72660608
O       -4.56559247      -3.79306720      -1.17710637
N       -4.91243593      -1.90693904       0.15980275
C       -6.15965133      -2.17681866       0.79377177
C       -6.82779955      -3.38497610       0.57006874
C       -8.05238777      -3.65037018       1.17113415
C       -8.63372392      -2.71110924       2.01717322
C       -7.99649337      -1.47691294       2.29081223
C       -8.56089766      -0.50625672       3.15710863
C       -7.92795683       0.70326119       3.43198644
C       -6.70750906       0.97895893       2.84670734
C       -6.12557601       0.04573629       1.98568607
C       -6.73811152      -1.20037306       1.67468496
H        0.49121546      -0.84460052      -2.55323300
H       -0.92502633      -2.29761984      -3.97303838
H       -3.08622138      -3.14588286      -3.11663132
H       -2.38339836      -1.12475722       0.63601888
H       -4.52347022      -0.99387854       0.32575197
H       -6.42575988      -4.15629602      -0.07818045
H       -8.54300802      -4.59918328       0.96662556
H       -9.51851989      -0.68024550       3.64315462
H       -8.39163782       1.42075282       4.10381184
H       -6.20192951       1.91801826       3.05702587
H       -5.16487056       0.32761907       1.56802176
C       -9.90387106      -3.08320395       2.58451066
C      -10.96761929      -3.39483327       3.05965576
Br     -12.68761022      -3.89871152       3.82792520
C       -0.88242027       0.88242027       0.88242027
C       -2.07388767       1.39511518       0.36974589
C       -2.88821308       2.18847010       1.17629253
C       -2.50183012       2.47376945       2.48679193
C       -1.29524057       1.97234375       2.99770990
C       -0.48845019       1.15825087       2.19301525
C       -0.94078880       2.29765864       4.41106075
O       -1.86250741       2.47479416       5.19846446
N        0.41499941       2.39777412       4.67679751
C        1.04845842       2.66667282       5.92448383
C        0.29049677       2.84725852       7.08594516
C        0.89848669       3.12597093       8.30413956
C        2.28390090       3.22412262       8.38743822
C        3.10213525       3.03737930       7.24735004
C        4.51663002       3.12110597       7.30556981
C        5.31998502       2.92804000       6.18465422
C        4.73061087       2.64446601       4.96798766
C        3.33959678       2.55832159       4.87542884
C        2.48099113       2.75119019       5.99360056
H       -2.38205104       1.17384508      -0.64927806
H       -3.82605453       2.58032273       0.78930730
H       -3.14701387       3.08744627       3.11427542
H        0.42038236       0.71001055       2.58250852
H        1.02441400       2.33765724       3.87835355
H       -0.79237928       2.78263447       7.08522260
H        0.27344466       3.26594677       9.18306362
H        5.02556584       3.33912013       8.24205649
H        6.40115219       2.99786001       6.27036535
H        5.34763597       2.48764988       4.08687148
H        2.94813943       2.32684422       3.89052494
C        2.81153799       3.51985927       9.69424308
C        3.25343405       3.76753871      10.78869215
Br       3.96794261       4.16801542      12.55832372
C        0.88242027      -0.88242027       0.88242027
C        0.44583381      -1.23311913       2.15979579
C        1.24154897      -2.04953498       2.96189176
C        2.47365834      -2.50173171       2.48700146
C        2.92106918      -2.13551673       1.20870831
C        2.11119122      -1.33245945       0.39606563
C        4.24025135      -2.66132276       0.74793408
O        4.60138761      -3.74600890       1.18836952
N        4.94025736      -1.83685129      -0.11753642
C        6.19970443      -2.08071057      -0.73771678
C        6.88148235      -3.28257290      -0.52134835
C        8.11779199      -3.52271680      -1.10888500
C        8.69755617      -2.56386170      -1.93375793
C        8.04701336      -1.33484502      -2.19926430
C        8.60968987      -0.34455109      -3.04419520
C        7.96379679       0.85986813      -3.31121945
C        6.73170015       1.11059052      -2.73926684
C        6.15104922       0.15755565      -1.89933991
C        6.77655433      -1.08423161      -1.59698632
H       -0.51443616      -0.88675807       2.53429615
H        0.90226903      -2.33981999       3.95359553
H        3.08663472      -3.14629509       3.11580575
H        2.40735029      -1.08293361      -0.61814719
H        4.54092606      -0.92699805      -0.27632733
H        6.48135830      -4.06830013       0.11057792
H        8.61872664      -4.46745625      -0.91061715
H        9.57623088      -0.49857764      -3.51919776
H        8.42662419       1.59295277      -3.96659826
H        6.21602479       2.04545347      -2.94368593
H        5.18086202       0.42036584      -1.49126646
C        9.98043908      -2.91052970      -2.48840442
C       11.05485352      -3.20086414      -2.95292086
Br      12.79209080      -3.67031038      -3.70400465
