142
Properties=species:S:1:pos:R:3 pbc="F F F"
C        1.79192591       1.79192591      -1.79192591
C        1.20528962       2.62807960      -2.73765904
C        2.01013052       3.43960596      -3.53781162
C        3.39803111       3.40655221      -3.38432917
O        4.18356626       4.21342877      -4.15830161
C        4.00362361       2.56433085      -2.44515492
C        5.50198718       2.54131531      -2.24217545
N        6.00115346       1.17261207      -2.35106251
C        7.36852536       0.91377839      -2.22388166
C        7.82957597      -0.37203675      -2.53327319
C        9.16858608      -0.72727654      -2.34843032
C       10.07314144       0.19907220      -1.82987780
Br      11.87304028      -0.36068306      -1.59983681
C        9.64400599       1.48579353      -1.48393409
C       10.57407736       2.51921746      -0.91305005
C        8.28666839       1.81643902      -1.67039321
C        3.17842270       1.75752863      -1.64026531
H        0.12513460       2.65862400      -2.85633327
H        1.54017885       4.09168184      -4.26770160
H        3.61876803       4.72045989      -4.76495576
H        5.70245796       2.94839609      -1.24267681
H        6.01186603       3.17679313      -2.97522540
H        5.59737966       0.68233811      -3.14564190
H        7.13914919      -1.11932062      -2.91569827
H        9.48906915      -1.73443780      -2.60247974
H       10.05588208       3.46622145      -0.72402447
H       11.38749381       2.73183001      -1.61477097
H       10.98790671       2.17807036       0.04146327
H        7.95887517       2.80944016      -1.37632177
H        3.63125504       1.10456703      -0.89628408
C       -1.79192591      -1.79192591      -1.79192591
C       -2.41193139      -2.91256885      -1.24652801
C       -3.22392014      -3.71375756      -2.04987040
C       -3.40810210      -3.38578902      -3.39502137
O       -4.21603158      -4.16300765      -4.17625742
C       -2.78402118      -2.26836639      -3.96072182
C       -2.99993773      -1.87948869      -5.40605152
N       -1.71341627      -1.72952982      -6.08188196
C       -1.66969513      -1.39780275      -7.43868753
C       -0.43421532      -1.46127223      -8.09532488
C       -0.29895698      -1.06272548      -9.42805739
C       -1.40183707      -0.57292130     -10.12733306
Br      -1.13697260      -0.04358074     -11.93164069
C       -2.64729393      -0.46971958      -9.49672011
C       -3.86545760       0.05940378     -10.20029106
C       -2.75559143      -0.86863112      -8.14927806
C       -1.97436224      -1.46572967      -3.13612473
H       -2.27341836      -3.16773962      -0.19893390
H       -3.70660857      -4.58173832      -1.61121541
H       -4.55810928      -4.90111879      -3.64495560
H       -3.55247814      -0.93102460      -5.41002812
H       -3.60540695      -2.62639502      -5.93208259
H       -1.07571908      -2.49020064      -5.85943995
H        0.44542338      -1.81626993      -7.56468028
H        0.67601927      -1.12899047      -9.90413989
H       -4.74513371       0.04579970      -9.54679398
H       -4.10278363      -0.55880944     -11.07250172
H       -3.70803167       1.09672391     -10.51320604
H       -3.72059783      -0.76195857      -7.66208069
H       -1.49011909      -0.58591385      -3.55607322
C       -1.79192591       1.79192591       1.79192591
C       -2.77925380       1.20985734       2.58191711
C       -3.57961236       2.01436081       3.39357493
C       -3.38459853       3.39736778       3.40694617
O       -4.15922547       4.18192851       4.21414266
C       -2.40308508       3.99875157       2.61127274
C       -2.15568422       5.49033535       2.63945838
N       -2.20852916       6.03245367       1.28384522
C       -2.03357931       7.40236011       1.07024599
C       -2.29037034       7.91002054      -0.20957846
C       -2.05573027       9.25267456      -0.51866498
C       -1.53909565      10.11363022       0.44936557
Br      -1.23961818      11.92139334      -0.04881749
C       -1.24487695       9.63672671       1.73212996
C       -0.67844187      10.51845837       2.80944463
C       -1.48092643       8.27653088       2.01604330
C       -1.59873290       3.17362469       1.80385905
H       -2.93039665       0.13334620       2.57634902
H       -4.34231204       1.54775163       4.00949862
H       -4.79719906       3.62108670       4.68589791
H       -1.16348520       5.64852693       3.08151874
H       -2.89232818       6.00327093       3.26828545
H       -2.99943626       5.66739072       0.75853269
H       -2.67012912       7.25364732      -0.98824960
H       -2.26975929       9.61005586      -1.52270406
H       -0.53335661       9.96726564       3.74550575
H       -1.36212447      11.34610819       3.02586212
H        0.29765134      10.91310284       2.50906230
H       -1.22669756       7.91105264       3.00688689
H       -0.82242936       3.62273026       1.18694654
C        1.79192591      -1.79192591       1.79192591
C        3.11793142      -2.01883869       1.43425813
C        3.92592210      -2.81780751       2.24381848
C        3.39825204      -3.38424614       3.40641431
O        4.19551304      -4.15381170       4.20597190
C        2.06470942      -3.17384911       3.77455086
C        1.48706783      -3.75108616       5.04732395
N        0.27141850      -4.50444536       4.74896419
C       -0.42116188      -5.15144794       5.77589935
C       -1.45908823      -6.02419385       5.42570680
C       -2.24990491      -6.63979506       6.39984970
C       -2.02633318      -6.37717383       7.75125078
Br      -3.14736828      -7.24489549       9.01466681
C       -1.01539638      -5.49001366       8.13911633
C       -0.73802347      -5.16443062       9.57993772
C       -0.23822506      -4.87426903       7.13745665
C        1.26448501      -2.35957268       2.95215895
H        3.53214824      -1.57588928       0.53205436
H        4.96007707      -2.98241525       1.95706997
H        5.07994715      -4.21580679       3.80842974
H        1.26682929      -2.90970098       5.71700059
H        2.20894698      -4.40446090       5.55047667
H        0.38550604      -5.10439904       3.93545460
H       -1.66910272      -6.22606754       4.37856201
H       -3.04469132      -7.31299165       6.08881076
H        0.10022739      -4.46561743       9.68028317
H       -0.46938601      -6.07089359      10.13258721
H       -1.61171782      -4.69380206      10.04242956
H        0.52760353      -4.16918618       7.44784739
H        0.22793550      -2.17533974       3.22883092
C       -0.00445707       0.01189536      -1.78238275
H       -0.66409135       0.67374010      -2.43557963
H        0.65740317      -0.63156657      -2.45157240
C       -0.90989263      -0.90692880      -0.91072765
C        0.90977584       0.90977584      -0.90977584
C       -0.00465871       1.77757030       0.00794375
H       -0.66225468       2.44313916      -0.64384735
H        0.64322798       2.43503045       0.67728295
C       -1.78241447       0.00034974      -0.00472694
H       -2.45427497      -0.65498947       0.64260836
H       -2.43311707       0.67328779      -0.65473579
C       -0.91132561       0.90220522       0.91563759
C       -0.01476271      -0.02253852       1.78660255
H       -0.67934791      -0.69751639       2.42135241
H        0.63392994       0.61504881       2.47327442
C        0.01484550      -1.77751727      -0.01636693
H        0.67870853      -2.42144646      -0.68295456
H       -0.62264859      -2.45592969       0.64226336
C        1.78714474       0.01002794       0.00389507
H        2.44202412       0.67113390       0.66197326
H        2.45385902      -0.65136977      -0.64189061
C        0.91606151      -0.90478549       0.90901405
