190
Properties=species:S:1:pos:R:3 pbc="F F F"
C        4.57294948       3.78085905      -5.44343203
O        4.22678001       4.22662650      -4.13591201
C        3.42107791       3.39017571      -3.40634687
C        2.47790475       2.53077267      -3.98190892
C        1.66929279       1.72679222      -3.17523599
C        1.79153094       1.79153094      -1.79153094
C        2.71846555       2.64971617      -1.20532061
C        3.54722063       3.46264415      -2.00408325
C        4.61227405       4.33417822      -1.37039214
H        4.94479167       5.11705239      -2.05311449
S        6.11556519       3.31683548      -1.05293294
C        5.97421437       3.47243569       0.73282156
C        5.33873512       4.84142939       0.91116557
N        4.23953726       4.93447518      -0.06889451
S        3.32232190       6.35113843      -0.09687793
O        2.12341174       6.07233790      -0.86377477
O        3.19938125       6.84214191       1.25898913
C        4.27535138       7.51513925      -1.05824286
C        3.95264966       7.62702364      -2.42359378
C        4.62841475       8.53772633      -3.22739908
Br       4.22222691       8.64530781      -5.06897269
C        5.60923169       9.35812633      -2.68315817
C        5.91476287       9.26530115      -1.32186164
C        5.23995195       8.35632400      -0.49178904
O        5.56266843       8.21810427       0.82872569
C        5.84954309       9.43874794       1.51191182
H        5.34682328       4.45234863      -5.82800557
H        3.71820095       3.84178188      -6.12368349
H        4.98906377       2.76792036      -5.41915942
H        2.33896404       2.47528460      -5.05662627
H        0.94423762       1.06144001      -3.63650451
H        2.80417350       2.69017855      -0.12173084
H        5.32056723       2.67639935       1.10462757
H        6.94586550       3.39482791       1.22614938
H        4.94991699       4.92689614       1.93097666
H        6.07845768       5.63083510       0.74719435
H        3.18236261       6.99341572      -2.86123528
H        6.14648397      10.06852426      -3.30704834
H        6.70307088       9.90462100      -0.93364069
H        5.76667114       9.25046400       2.58641991
H        5.13575525      10.22921556       1.25283045
H        6.87613093       9.76151041       1.31026531
C       -5.47947709      -3.82687975      -4.49088372
O       -4.15922076      -4.25638607      -4.17371169
C       -3.42021622      -3.40788347      -3.38950080
C       -3.57966668      -2.01720784      -3.39371182
C       -2.77098386      -1.21066126      -2.58967587
C       -1.79153094      -1.79153094      -1.79153094
C       -1.61509256      -3.17289458      -1.78551518
C       -2.42670434      -4.00222777      -2.58501591
C       -2.29106590      -5.50965311      -2.51612540
H       -2.73697401      -5.99017350      -3.38781104
S       -3.26338526      -6.13904168      -1.08290667
C       -1.80148942      -6.70813006      -0.20420902
C       -0.85107850      -7.09138342      -1.32653702
N       -0.90930816      -6.00747756      -2.32612123
S        0.06734938      -6.14146038      -3.69622726
O        0.10431108      -4.83632939      -4.32750611
O        1.30827239      -6.77921926      -3.31158717
C       -0.82293691      -7.21471119      -4.81108538
C       -1.61419163      -6.59361535      -5.79546010
C       -2.30844652      -7.36444899      -6.72064465
Br      -3.40678384      -6.52309979      -8.00662378
C       -2.20698360      -8.75016804      -6.69336455
C       -1.40251071      -9.36827027      -5.73114469
C       -0.68870406      -8.60773624      -4.79162469
O        0.06057580      -9.19884353      -3.81377928
C        0.80061926     -10.34689433      -4.23010414
H       -5.99715496      -4.66831097      -4.96171154
H       -5.46758983      -3.00411098      -5.21196551
H       -6.03493816      -3.55411898      -3.58708640
H       -4.31646377      -1.53027838      -4.02413276
H       -2.90908999      -0.13270984      -2.60038231
H       -0.84558256      -3.61435991      -1.15614043
H       -1.40407588      -5.87939918       0.39113605
H       -2.02603391      -7.54706939       0.45855927
H        0.16221909      -7.18516632      -0.92288924
H       -1.14618273      -8.04821387      -1.76770183
H       -1.69798507      -5.50823012      -5.83079841
H       -2.75211421      -9.36000930      -7.40993307
H       -1.36412335     -10.45424192      -5.72296730
H        1.58685957     -10.52665772      -3.49091707
H        1.28214186     -10.19179207      -5.20249016
H        0.15781167     -11.23291143      -4.25227626
C       -4.84933353       5.27681047       3.67109656
O       -4.15467475       4.17938156       4.25526221
C       -3.39326598       3.42311364       3.40122087
C       -3.69763525       3.24657922       2.04637187
C       -2.89297858       2.43752179       1.24082062
C       -1.79153094       1.79153094       1.79153094
C       -1.48319725       1.95001747       3.14028761
C       -2.27991515       2.76809412       3.96593876
C       -1.89743895       3.00706425       5.41234122
H       -2.74269478       3.38067598       5.99158778
S       -0.64139050       4.35310723       5.49083587
C        0.64831817       3.25965455       6.10249212
C       -0.12518021       2.23189086       6.91192788
N       -1.29660437       1.84307821       6.10322437
S       -2.34722193       0.68472907       6.73838725
O       -3.18691377       0.22262935       5.64998130
O       -1.56759258      -0.27524503       7.49018649
C       -3.41701716       1.57570032       7.85601601
C       -4.65924343       1.99761494       7.34640871
C       -5.55917038       2.66628148       8.16808831
Br      -7.20290055       3.27203651       7.46157034
C       -5.24741217       2.90128557       9.50181845
C       -4.02375635       2.46187844      10.01629088
C       -3.10360968       1.77970956       9.20474576
O       -1.88316645       1.38950784       9.67937272
C       -1.88870546       0.87592840      11.01174535
H       -5.26117457       5.87963996       4.48636295
H       -5.68939708       4.93532338       3.05894585
H       -4.17020131       5.91282084       3.09312140
H       -4.56425655       3.71508101       1.59153735
H       -3.13941834       2.31311251       0.18965129
H       -0.61845456       1.43941869       3.55820965
H        1.15291692       2.79799287       5.24726307
H        1.38573084       3.79665710       6.70361777
H        0.51613660       1.36430173       7.09767134
H       -0.43448451       2.65534508       7.87226885
H       -4.91776922       1.81502382       6.30422057
H       -5.94374471       3.42927222      10.14903964
H       -3.80171276       2.68276052      11.05685929
H       -0.96478764       0.30845528      11.15747230
H       -2.73149496       0.19660777      11.18403764
H       -1.89391365       1.69332634      11.74013604
C        3.83794943      -5.48665574       4.47263539
O        4.22097021      -4.13625367       4.23209463
C        3.38937178      -3.40821144       3.42001727
C        2.62420858      -3.97330512       2.39307264
C        1.82033189      -3.16635372       1.58463539
C        1.79153094      -1.79153094       1.79153094
C        2.55576935      -1.21488841       2.80284456
C        3.36688814      -2.01468820       3.63237169
C        4.13337797      -1.39855495       4.78491150
H        4.93640484      -2.05360770       5.12494601
S        3.01191523      -1.23545166       6.23796672
C        3.06405849       0.56168179       6.21145180
C        4.45417208       0.85914639       5.67397325
N        4.67229408      -0.04344505       4.52716782
S        6.13925493       0.06877961       3.69986294
O        5.97946418      -0.63700894       2.44305130
O        6.55125684       1.45610544       3.68738264
C        7.30300230      -0.88019347       4.66553772
C        7.51838279      -2.21390098       4.27098331
C        8.43619632      -3.00347195       4.95387189
Br       8.68182782      -4.80671352       4.44796607
C        9.16224348      -2.47421348       6.01405923
C        8.96711089      -1.14235987       6.39245491
C        8.04932544      -0.32657606       5.71216349
O        7.81049636       0.96091543       6.10246608
C        8.96733188       1.69526202       6.50430934
H        4.48557855      -5.87865344       5.26294548
H        3.99107906      -6.10763614       3.58495112
H        2.80282688      -5.54772713       4.82558954
H        2.64396940      -5.03868959       2.18821592
H        1.22861386      -3.61978098       0.79378730
H        2.52360455      -0.13823047       2.95424787
H        2.28608902       0.92617668       5.53242668
H        2.89909202       0.98816767       7.20361968
H        4.49862099       1.90443695       5.35165243
H        5.20755339       0.69597841       6.45052345
H        6.95947222      -2.63911190       3.43842949
H        9.87740104      -3.08764144       6.55701410
H        9.53373318      -0.76717576       7.24042363
H        8.71770107       2.75996339       6.47297754
H        9.81285692       1.52788035       5.82716380
H        9.24131559       1.44935654       7.53541697
C       -0.00445707       0.01189536      -1.78238275
H       -0.66409135       0.67374010      -2.43557963
H        0.65740317      -0.63156657      -2.45157240
C       -0.90989263      -0.90692880      -0.91072765
C        0.90977584       0.90977584      -0.90977584
C       -0.00465871       1.77757030       0.00794375
H       -0.66225468       2.44313916      -0.64384735
H        0.64322798       2.43503045       0.67728295
C       -1.78241447       0.00034974      -0.00472694
H       -2.45427497      -0.65498947       0.64260836
H       -2.43311707       0.67328779      -0.65473579
C       -0.91132561       0.90220522       0.91563759
C       -0.01476271      -0.02253852       1.78660255
H       -0.67934791      -0.69751639       2.42135241
H        0.63392994       0.61504881       2.47327442
C        0.01484550      -1.77751727      -0.01636693
H        0.67870853      -2.42144646      -0.68295456
H       -0.62264859      -2.45592969       0.64226336
C        1.78714474       0.01002794       0.00389507
H        2.44202412       0.67113390       0.66197326
H        2.45385902      -0.65136977      -0.64189061
C        0.91606151      -0.90478549       0.90901405
