134
Properties=species:S:1:pos:R:3 pbc="F F F"
C        1.82605017       1.82605017      -1.82605017
C        2.48676755       0.97443456      -2.89357481
C        3.30006142       1.82949149      -3.83948987
O        3.42310520       3.04825911      -3.68626749
C        3.92637852       1.18251973      -5.03833437
C        4.26739863      -0.18042359      -4.99529702
C        4.82788995      -0.80177043      -6.11067582
C        5.05340946      -0.07124490      -7.27121750
C        4.71137803       1.28172197      -7.32690601
C        4.14087664       1.92580073      -6.22381589
N        3.78347902       3.29516805      -6.26376312
C        3.59886449       4.08387153      -7.38595742
O        3.66021587       3.70170673      -8.55126805
C        3.27613619       5.52142895      -7.05445748
H        2.55997363       2.29433997      -1.16341668
H        1.17683878       2.59810997      -2.24656546
H        1.72358612       0.44684129      -3.47963654
H        3.13988367       0.23886791      -2.41432376
H        4.11651061      -0.78059507      -4.10281759
H        5.09275933      -1.85623636      -6.07446643
H        5.49832241      -0.54918694      -8.14132684
H        4.92190515       1.81652567      -8.24861921
H        3.51970254       3.69798691      -5.35954841
H        3.55882812       6.17655179      -7.88322304
H        3.76581523       5.85147406      -6.13570304
C        1.85148026       5.61484684      -6.86676475
C        0.65833091       5.69308433      -6.70957208
Br      -1.27089067       5.81958773      -6.45540484
C       -1.82605017      -1.82605017      -1.82605017
C       -1.02617995      -3.02227376      -2.30632322
C       -1.89359114      -3.96342030      -3.11203134
O       -3.07663815      -3.71679626      -3.36419738
C       -1.31222478      -5.26867923      -3.56632860
C        0.07313052      -5.37776060      -3.77764199
C        0.63133416      -6.59171265      -4.17641685
C       -0.18451524      -7.70023770      -4.36862912
C       -1.56127883      -7.60447544      -4.15425174
C       -2.14407447      -6.39976312      -3.74665566
N       -3.53693438      -6.28548728      -3.51998853
C       -4.44263003      -7.31160944      -3.31445397
O       -4.16998342      -8.50635014      -3.23685710
C       -5.86448576      -6.82638634      -3.16115052
H       -2.16277411      -1.19841572      -2.65654046
H       -2.68860470      -2.11335696      -1.21955255
H       -0.62587291      -3.57636099      -1.44783004
H       -0.19384165      -2.67391279      -2.92532090
H        0.74056310      -4.53079623      -3.64849999
H        1.70350886      -6.67331623      -4.34118203
H        0.24489619      -8.64738770      -4.68797080
H       -2.16148577      -8.49185219      -4.33371207
H       -3.87276312      -5.32843866      -3.37603609
H       -6.56878536      -7.61800215      -3.43181543
H       -6.06093218      -5.93346995      -3.75859020
C       -6.06360458      -6.49561550      -1.77387176
C       -6.23036660      -6.21859492      -0.61202580
Br      -6.50000667      -5.77067607       1.26658084
C       -1.82605017       1.82605017       1.82605017
C       -2.43316128       0.98702594       2.93458970
C       -3.24400436       1.84577681       3.87926161
O       -3.40538236       3.05594075       3.69630869
C       -3.81890258       1.21586872       5.11246132
C       -4.12254443      -0.15655558       5.11628321
C       -4.63466825      -0.76140461       6.26353170
C       -4.84882475      -0.00499736       7.40955468
C       -4.54354634       1.35784122       7.41861845
C       -4.02172300       1.98602350       6.28274676
N       -3.70198115       3.36522759       6.27520145
C       -3.50900118       4.18989842       7.36979384
O       -3.52772398       3.83909049       8.54637620
C       -3.23596835       5.62585689       6.99019738
H       -2.59067423       2.25530737       1.17174868
H       -1.18753746       2.62707224       2.20690452
H       -1.63972805       0.49715906       3.51317683
H       -3.07820608       0.22071208       2.49415719
H       -3.97929909      -0.77721709       4.23665113
H       -4.87069806      -1.82331573       6.26360707
H       -5.25619048      -0.47028431       8.30455615
H       -4.74374956       1.91237676       8.33092371
H       -3.47443410       3.74954097       5.35326280
H       -3.51420131       6.29603568       7.80836595
H       -3.75965063       5.91645428       6.07688742
C       -1.82016073       5.75286124       6.76006988
C       -0.63442184       5.85922738       6.56733810
Br       1.28281765       6.03121244       6.25570711
C        1.82605017      -1.82605017       1.82605017
C        1.35834343      -3.26601882       1.73041468
C        2.26375846      -4.18152867       2.52375565
O        3.21220369      -3.75587695       3.18955115
C        2.03748707      -5.66177576       2.44796979
C        0.75011976      -6.15619869       2.17595362
C        0.52920756      -7.52948500       2.07810278
C        1.58532379      -8.41588262       2.25217565
C        2.86975814      -7.93474510       2.51550277
C        3.11827208      -6.56133344       2.61088774
N        4.41450492      -6.05548876       2.87241651
C        5.62084654      -6.71858858       2.72925832
O        5.76852507      -7.85540635       2.28925924
C        6.80848610      -5.88858151       3.15495500
H        1.73969071      -1.43415660       2.84388297
H        2.85263013      -1.69345920       1.47542488
H        1.36955211      -3.59648785       0.68402398
H        0.33715427      -3.33938354       2.11653753
H       -0.10146821      -5.49499002       2.04521133
H       -0.46831517      -7.90993666       1.86936791
H        1.41663633      -9.48851493       2.18531106
H        3.66057781      -8.66492882       2.66154340
H        4.45270033      -5.05160619       3.07293135
H        7.64292217      -6.53524019       3.44044059
H        6.56402363      -5.21213544       3.97683326
C        7.21375272      -5.09691047       2.02242866
C        7.55316351      -4.43388598       1.07393784
Br       8.10196205      -3.36183144      -0.45969159
C       -0.00445707       0.01189536      -1.78238275
H       -0.66409135       0.67374010      -2.43557963
H        0.65740317      -0.63156657      -2.45157240
C       -0.90989263      -0.90692880      -0.91072765
C        0.90977584       0.90977584      -0.90977584
C       -0.00465871       1.77757030       0.00794375
H       -0.66225468       2.44313916      -0.64384735
H        0.64322798       2.43503045       0.67728295
C       -1.78241447       0.00034974      -0.00472694
H       -2.45427497      -0.65498947       0.64260836
H       -2.43311707       0.67328779      -0.65473579
C       -0.91132561       0.90220522       0.91563759
C       -0.01476271      -0.02253852       1.78660255
H       -0.67934791      -0.69751639       2.42135241
H        0.63392994       0.61504881       2.47327442
C        0.01484550      -1.77751727      -0.01636693
H        0.67870853      -2.42144646      -0.68295456
H       -0.62264859      -2.45592969       0.64226336
C        1.78714474       0.01002794       0.00389507
H        2.44202412       0.67113390       0.66197326
H        2.45385902      -0.65136977      -0.64189061
C        0.91606151      -0.90478549       0.90901405
