166
Properties=species:S:1:pos:R:3 pbc="F F F"
C        1.79085525       1.79085525      -1.79085525
C        1.71481045       3.17547817      -1.68272320
C        2.52273724       3.98059122      -2.49115313
C        3.42623064       3.41464603      -3.41054646
C        3.47075684       2.01322337      -3.50949946
C        2.66239980       1.20586574      -2.70328567
C        4.28115176       4.33644727      -4.27282108
H        3.57231399       4.96620257      -4.82751566
N        5.06278414       3.62533367      -5.27488330
C        6.30391082       3.18580858      -4.98725682
N        7.05414204       2.34183644      -5.64478263
C        8.20979879       2.32074087      -4.90966122
N        8.21999688       3.09912941      -3.82301140
N        6.97528130       3.61405058      -3.87273480
C        6.44596881       4.56043999      -2.89698959
H        7.24558987       5.30432697      -2.77178754
C        5.21254920       5.28299314      -3.48326700
C        6.18735427       3.96564982      -1.51225556
C        6.20832172       2.58700523      -1.24062473
C        5.97363704       2.10284774       0.05083005
C        5.71171380       2.99171251       1.08840940
Br       5.39945346       2.33641573       2.83213087
C        5.68773390       4.36138251       0.84923541
C        5.92861398       4.84328281      -0.44039834
H        1.03006380       3.63826511      -0.97637048
H        2.43443871       5.06103213      -2.39415390
H        4.14040530       1.51883836      -4.20957784
H        2.72379255       0.12463362      -2.79809593
H        4.54537982       3.14132878      -6.00220970
H        9.06886997       1.71994418      -5.17896114
H        4.66409282       5.84377844      -2.71878140
H        5.58502875       6.03635359      -4.19401769
H        6.41608799       1.85944041      -2.02360320
H        6.00381956       1.03233746       0.23173884
H        5.49073650       5.06118745       1.65687064
H        5.92000960       5.92036384      -0.59943004
C       -1.79085525      -1.79085525      -1.79085525
C       -2.22280599      -1.32281717      -3.02738867
C       -3.03014827      -2.13166121      -3.83267212
C       -3.40797012      -3.42348372      -3.41996928
C       -2.96985538      -3.86437947      -2.15924482
C       -2.16377922      -3.05654970      -1.35122227
C       -4.29402877      -4.26369795      -4.33269339
H       -5.20519164      -3.67065014      -4.49019044
N       -4.72405069      -5.51487008      -3.72408034
C       -3.98269020      -6.63180141      -3.86248461
N       -4.06443816      -7.76293602      -3.21338693
C       -3.09948821      -8.53022772      -3.81048496
N       -2.41254541      -7.93749013      -4.79210214
N       -2.97011745      -6.71032398      -4.78162525
C       -2.58435612      -5.63287526      -5.68616700
H       -2.53772867      -6.10722562      -6.67675009
C       -3.69435898      -4.55887847      -5.72557190
C       -1.19672248      -5.04803170      -5.42050547
C       -0.44221534      -5.32581119      -4.26792515
C        0.82771214      -4.76780799      -4.08555888
C        1.35941950      -3.92136602      -5.05307040
Br       3.07585828      -3.17248063      -4.80711597
C        0.63640609      -3.63130818      -6.20497891
C       -0.62945347      -4.19476174      -6.38807992
H       -1.94036869      -0.33143524      -3.37289546
H       -3.36347324      -1.73594903      -4.79020247
H       -3.23901126      -4.84819990      -1.78161035
H       -1.83521248      -3.42763951      -0.38367011
H       -5.33033378      -5.44608342      -2.91250110
H       -2.89560201      -9.55261451      -3.51955877
H       -3.36054370      -3.64232336      -6.22378559
H       -4.50881468      -4.95649671      -6.35008864
H       -0.81994833      -5.98837117      -3.49081209
H        1.39040461      -5.00694085      -3.18788193
H        1.04915705      -2.97653061      -6.96767975
H       -1.16940934      -3.96514801      -7.30524614
C       -1.79085525       1.79085525       1.79085525
C       -1.24642003       2.90406644       2.42252535
C       -2.05547075       3.70956567       3.22944517
C       -3.42194025       3.42173378       3.40774909
C       -3.94151945       2.28197065       2.76998956
C       -3.13392940       1.47375689       1.96386490
C       -4.25984622       4.32837597       4.30219792
H       -3.77114276       4.30906319       5.28582627
N       -5.61439682       3.83653532       4.51206896
C       -6.60809532       4.19408586       3.67479504
N       -7.80538711       3.68588672       3.54948729
C       -8.37576314       4.47690379       2.58753396
N       -7.59720937       5.44695006       2.09797826
N       -6.45778091       5.22213387       2.78215190
C       -5.24731751       6.02251179       2.63356908
H       -5.59970260       7.06349208       2.65850970
C       -4.32220374       5.80487170       3.85173390
C       -4.52720036       5.84116079       1.29689849
C       -4.83457964       4.82270182       0.37867021
C       -4.14637688       4.71381017      -0.83453232
C       -3.13855486       5.62118613      -1.14472407
Br      -2.21355816       5.47519462      -2.78501446
C       -2.81522075       6.64093593      -0.25627568
C       -3.50820988       6.75168066       0.95240459
H       -0.19550458       3.15251076       2.29668406
H       -1.60091907       4.56758342       3.72112224
H       -4.98687744       2.00237423       2.87956983
H       -3.56590335       0.60226466       1.47835409
H       -5.71181795       2.96068438       5.01641597
H       -9.39064809       4.33991423       2.23721297
H       -3.32178590       6.21889029       3.68597646
H       -4.74664603       6.38012788       4.68862613
H       -5.62085845       4.09719006       0.58108309
H       -4.41135216       3.92067163      -1.52760562
H       -2.03384813       7.35707808      -0.49587290
H       -3.24763413       7.56773589       1.62443346
C        1.79085525      -1.79085525       1.79085525
C        2.01215468      -1.44188267       3.11897448
C        2.81993118      -2.25043433       3.92411609
C        3.40861398      -3.42481546       3.41799368
C        3.18048788      -3.74460923       2.06838256
C        2.37440707      -2.93655174       1.26059238
C        4.28559586      -4.26922149       4.33560276
H        5.08700756      -3.60065610       4.67836856
N        4.94298349      -5.37191849       3.64809913
C        4.34313399      -6.57543139       3.55841084
N        4.64656269      -7.59485478       2.79934364
C        3.72784384      -8.53991978       3.17243727
N        2.86054070      -8.16402149       4.11757550
N        3.25022740      -6.88992460       4.32191468
C        2.62497447      -5.99188848       5.28653544
H        2.52672591      -6.59393579       6.20104268
C        3.57289385      -4.81134212       5.59457337
C        1.21279880      -5.54150680       4.91095405
C        0.63930693      -5.75137145       3.64527330
C       -0.66307609      -5.32472255       3.36400826
C       -1.40908677      -4.67924054       4.34486315
Br      -3.16875890      -4.10788226       3.96461496
C       -0.86813414      -4.46083492       5.60718022
C        0.43087156      -4.89341643       5.88800714
H        1.56445703      -0.54352686       3.53671550
H        2.98579900      -1.94756744       4.95625831
H        3.61782875      -4.63285027       1.61814248
H        2.21116065      -3.21331348       0.22204797
H        5.62468652      -5.12800137       2.93623041
H        3.69443269      -9.53210550       2.74123711
H        3.06676098      -4.01257565       6.14731602
H        4.35475202      -5.19050754       6.27014047
H        1.18766266      -6.25848195       2.85298699
H       -1.08218817      -5.50772987       2.37887648
H       -1.44828814      -3.96354585       6.37979559
H        0.82659058      -4.72495744       6.88825546
C       -0.00445707       0.01189536      -1.78238275
H       -0.66409135       0.67374010      -2.43557963
H        0.65740317      -0.63156657      -2.45157240
C       -0.90989263      -0.90692880      -0.91072765
C        0.90977584       0.90977584      -0.90977584
C       -0.00465871       1.77757030       0.00794375
H       -0.66225468       2.44313916      -0.64384735
H        0.64322798       2.43503045       0.67728295
C       -1.78241447       0.00034974      -0.00472694
H       -2.45427497      -0.65498947       0.64260836
H       -2.43311707       0.67328779      -0.65473579
C       -0.91132561       0.90220522       0.91563759
C       -0.01476271      -0.02253852       1.78660255
H       -0.67934791      -0.69751639       2.42135241
H        0.63392994       0.61504881       2.47327442
C        0.01484550      -1.77751727      -0.01636693
H        0.67870853      -2.42144646      -0.68295456
H       -0.62264859      -2.45592969       0.64226336
C        1.78714474       0.01002794       0.00389507
H        2.44202412       0.67113390       0.66197326
H        2.45385902      -0.65136977      -0.64189061
C        0.91606151      -0.90478549       0.90901405
