153
Properties=species:S:1:pos:R:3 pbc="F F F"
C        0.00000000       0.00000000       0.00000000
C        0.88095123       0.88095123      -0.88095123
C        0.80490643       2.26557415      -0.77281918
C        1.61283322       3.07068720      -1.58124911
C        2.51632661       2.50474200      -2.50064244
C        2.56085282       1.10331934      -2.59959544
C        1.75249577       0.29596171      -1.79338164
C        3.37124774       3.42654324      -3.36291706
H        2.66240997       4.05629854      -3.91761163
N        4.15288012       2.71542964      -4.36497927
C        5.39400679       2.27590455      -4.07735280
N        6.14423802       1.43193241      -4.73487860
C        7.29989477       1.41083685      -3.99975720
N        7.31009285       2.18922538      -2.91310738
N        6.06537727       2.70414656      -2.96283077
C        5.53606479       3.65053596      -1.98708556
H        6.33568585       4.39442294      -1.86188351
C        4.30264517       4.37308912      -2.57336298
C        5.27745024       3.05574580      -0.60235153
C        5.29841769       1.67710120      -0.33072071
C        5.06373301       1.19294371       0.96073407
C        4.80180978       2.08180849       1.99831342
C        4.77782987       3.45147849       1.75913943
C        5.01870995       3.93337878       0.46950568
H        0.12015977       2.72836109      -0.06646646
H        1.52453468       4.15112811      -1.48424988
H        3.23050128       0.60893434      -3.29967381
H        1.81388852      -0.78527041      -1.88819191
H        3.63547580       2.23142475      -5.09230567
H        8.15896594       0.81004016      -4.26905711
H        3.75418879       4.93387441      -1.80887738
H        4.67512473       5.12644956      -3.28411367
H        5.50618397       0.94953638      -1.11369917
H        5.09391554       0.12243343       1.14164287
H        4.58083248       4.15128342       2.56677467
H        5.01010558       5.01045981       0.31047398
C        4.56374330       1.58221191       3.32772217
C        4.36436263       1.16379978       4.44110199
Br       4.04198095       0.48726275       6.24134300
C       -0.88095123      -0.88095123      -0.88095123
C       -2.07197743      -1.39363174      -0.37769059
C       -2.87733842      -2.20080453      -1.18662657
C       -2.51079142      -2.49793042      -2.51298922
C       -1.29459628      -1.97918193      -2.98998938
C       -0.48649298      -1.17309246      -2.18225368
C       -3.42122970      -3.38740616      -3.35207218
H       -3.50739489      -4.33161941      -2.79730584
N       -2.85482351      -3.72898504      -4.64948048
C       -3.08146627      -2.94430326      -5.72149461
N       -2.48496299      -2.94198467      -6.88410138
C       -3.16264269      -1.97267421      -7.57517192
N       -4.14507458      -1.36237888      -6.90497215
N       -4.04922800      -1.97500073      -5.70812587
C       -4.91728137      -1.68390719      -4.57249775
H       -5.93082138      -1.66351661      -4.99765431
C       -4.85306451      -2.84304577      -3.55298700
C       -4.68806785      -0.31357845      -3.93390127
C       -3.58650205       0.50804740      -4.22778495
C       -3.43624976       1.75813378      -3.61782668
C       -4.38510338       2.20248238      -2.70268385
C       -5.48686085       1.41174348      -2.39505156
C       -5.63829917       0.16593251      -3.01021639
H       -2.38165017      -1.17450353       0.64116638
H       -3.79806765      -2.59818732      -0.76365770
H       -0.95311602      -2.18384891      -4.00214450
H        0.44565120      -0.78111058      -2.58135064
H       -2.01366369      -4.29768459      -4.64785795
H       -2.93144838      -1.70778898      -8.59882586
H       -5.32111165      -2.57660499      -2.59922394
H       -5.45777160      -3.66757838      -3.96033798
H       -2.82581905       0.19956915      -4.94316962
H       -2.57825625       2.37421222      -3.87066208
H       -6.23516316       1.75622082      -1.68639890
H       -6.51725284      -0.42796605      -2.76487252
C       -4.23087628       3.49081329      -2.07817006
C       -4.10171108       4.56979042      -1.55513976
Br      -3.89286188       6.31440520      -0.70944401
C       -0.88095123       0.88095123       0.88095123
C       -2.10920878       1.32837651       0.40571446
C       -2.91450609       2.13568644       1.21457699
C       -2.51020578       2.49803532       2.51346995
C       -1.25756731       2.04447122       2.96172906
C       -0.44952893       1.23839315       2.15391704
C       -3.42250951       3.38475161       3.35344692
H       -3.56634759       4.30263676       2.76733579
N       -2.82147247       3.79787665       4.61393991
C       -2.97675517       3.04774346       5.72276551
N       -2.33729005       3.11333903       6.86041996
C       -2.95006045       2.14697944       7.61344892
N       -3.93239936       1.47440537       7.00562089
N       -3.90568927       2.04292864       5.78373670
C       -4.80381519       1.67518960       4.69468152
H       -5.79906500       1.63331408       5.15961322
C       -4.82338635       2.79516859       3.63054232
C       -4.54538403       0.29053368       4.09962987
C       -3.40225286      -0.47693581       4.38092255
C       -3.22629093      -1.74337809       3.81302981
C       -4.19080788      -2.25856488       2.95306184
C       -5.33343998      -1.52248167       2.65921062
C       -5.51022307      -0.26014953       3.23250952
H       -2.44819693       1.05807559      -0.59128521
H       -3.86533483       2.48129531       0.81328252
H       -0.88650521       2.30126710       3.95133712
H        0.51158841       0.89767328       2.53072516
H       -2.00385230       4.39732846       4.55802547
H       -2.67032725       1.93121459       8.63652138
H       -5.31621580       2.47421051       2.70651428
H       -5.44411645       3.61165965       4.02991186
H       -2.62783316      -0.11231174       5.05389810
H       -2.33595570      -2.31637419       4.05512459
H       -6.09383617      -1.92232263       1.99382769
H       -6.42033832       0.29020357       2.99954952
C       -4.00992920      -3.56361493       2.37191879
C       -3.85844330      -4.65659436       1.88521148
Br      -3.61350342      -6.42384964       1.09824692
C        0.88095123      -0.88095123       0.88095123
C        0.52545336      -2.20563907       1.11220733
C        1.33402057      -3.01078538       1.91996357
C        2.51485540      -2.50818571       2.49866995
C        2.84126196      -1.16187352       2.26063211
C        2.03321465      -0.35407165       1.45455283
C        3.35902232      -3.42559957       3.37608615
H        2.69322091      -3.75963686       4.18346237
N        4.46965687      -2.74079232       4.02283984
C        5.67008941      -2.66181398       3.41536075
N        6.69577084      -1.90704349       3.70823470
C        7.63313094      -2.29117901       2.78617886
N        7.24649722      -3.23917676       1.92675163
N        5.97355494      -3.43362489       2.32517477
C        5.06612646      -4.39656698       1.71099287
H        5.66216005      -5.31520454       1.61462771
C        3.88943903      -4.69196554       2.66769270
C        4.60958089      -4.02667068       0.29929601
C        4.82351135      -2.76567433      -0.28294607
C        4.39079311      -2.48958296      -1.58443342
C        3.73509548      -3.47097513      -2.32076576
C        3.51245068      -4.72874952      -1.77103127
C        3.95108382      -5.00445806      -0.47295882
H       -0.37800449      -2.62066875       0.67232306
H        1.02604733      -4.04010870       2.09375664
H        3.73473598      -0.71434699       2.69002645
H        2.31513712       0.68182444       1.28349735
H        4.23401340      -2.02346628       4.70172655
H        8.62763297      -1.86609394       2.74433631
H        3.08442103      -5.24293011       2.16958944
H        4.26924718      -5.36514083       3.45129995
H        5.33855138      -1.97318982       0.25767832
H        4.57712648      -1.50805300      -2.01047338
H        3.00715889      -5.50181025      -2.34362791
H        3.77906971      -6.00132890      -0.07030720
C        3.29324233      -3.18642734      -3.66143662
C        2.92319032      -2.94811856      -4.78424846
Br       2.32484751      -2.56279343      -6.59974025
