145
Properties=species:S:1:pos:R:3 pbc="F F F"
C        0.00000000       0.00000000       0.00000000
C        0.88095123       0.88095123      -0.88095123
C        0.80490643       2.26557415      -0.77281918
C        1.61283322       3.07068720      -1.58124911
C        2.51632661       2.50474200      -2.50064244
C        2.56085282       1.10331934      -2.59959544
C        1.75249577       0.29596171      -1.79338164
C        3.37124774       3.42654324      -3.36291706
H        2.66240997       4.05629854      -3.91761163
N        4.15288012       2.71542964      -4.36497927
C        5.39400679       2.27590455      -4.07735280
N        6.14423802       1.43193241      -4.73487860
C        7.29989477       1.41083685      -3.99975720
N        7.31009285       2.18922538      -2.91310738
N        6.06537727       2.70414656      -2.96283077
C        5.53606479       3.65053596      -1.98708556
H        6.33568585       4.39442294      -1.86188351
C        4.30264517       4.37308912      -2.57336298
C        5.27745024       3.05574580      -0.60235153
C        5.29841769       1.67710120      -0.33072071
C        5.06373301       1.19294371       0.96073407
C        4.80180978       2.08180849       1.99831342
Br       4.48954944       1.42651170       3.74203490
C        4.77782987       3.45147849       1.75913943
C        5.01870995       3.93337878       0.46950568
H        0.12015977       2.72836109      -0.06646646
H        1.52453468       4.15112811      -1.48424988
H        3.23050128       0.60893434      -3.29967381
H        1.81388852      -0.78527041      -1.88819191
H        3.63547580       2.23142475      -5.09230567
H        8.15896594       0.81004016      -4.26905711
H        3.75418879       4.93387441      -1.80887738
H        4.67512473       5.12644956      -3.28411367
H        5.50618397       0.94953638      -1.11369917
H        5.09391554       0.12243343       1.14164287
H        4.58083248       4.15128342       2.56677467
H        5.01010558       5.01045981       0.31047398
C       -0.88095123      -0.88095123      -0.88095123
C       -0.87972535      -2.26045489      -0.70311951
C       -1.68748692      -3.06559995      -1.51168265
C       -2.51649462      -2.50398291      -2.50123352
C       -2.48587322      -1.10876499      -2.66912938
C       -1.67746394      -0.30151249      -1.86286270
C       -3.37442004      -3.42599242      -3.36029558
H       -2.67238400      -4.11592689      -3.84800925
N       -4.07062683      -2.72952486      -4.43313735
C       -5.30045938      -2.21733549      -4.22946928
N       -5.97513320      -1.37254221      -4.96337363
C       -7.16207207      -1.25940783      -4.28900892
N       -7.26320950      -1.98091858      -3.16829754
N       -6.04494426      -2.55655802      -3.13085233
C       -5.61099846      -3.47700309      -2.08568475
H       -6.45200240      -4.17462282      -1.96536709
C       -4.38878815      -4.28615658      -2.57415254
C       -5.38931221      -2.82651981      -0.71971555
C       -5.35403447      -1.43655733      -0.51564781
C       -5.15731537      -0.89997787       0.76135059
C       -4.99018407      -1.74716082       1.85204004
Br      -4.72909410      -1.02086748       3.57593534
C       -5.02355679      -3.12668571       1.68007357
C       -5.22643015      -3.66062606       0.40447316
H       -0.25358603      -2.71940078       0.05799949
H       -1.65824320      -4.14279635      -1.35887311
H       -3.09566497      -0.61870340      -3.42474105
H       -1.67993139       0.77529775      -2.01217638
H       -3.49543692      -2.30789161      -5.15587770
H       -7.97607092      -0.63252796      -4.62946434
H       -3.90630557      -4.83343802      -1.75719699
H       -4.76421827      -5.05557402      -3.26589566
H       -5.48739422      -0.74009982      -1.34192548
H       -5.14235675       0.17847901       0.88917163
H       -4.90072511      -3.79369849       2.52908237
H       -5.26428983      -4.74350948       0.29770790
C       -0.88095123       0.88095123       0.88095123
C       -0.29845037       1.82673337       1.71811601
C       -1.10763539       2.63254496       2.52458917
C       -2.51013610       2.51352464       2.49805031
C       -3.07052838       1.53898159       1.65425763
C       -2.26321142       0.73060342       0.84802429
C       -3.34751806       3.41229755       3.40089243
H       -3.00255780       3.20977800       4.42398434
N       -4.76689362       3.08724247       3.37915295
C       -5.58808305       3.67348811       2.48569299
N       -6.80927430       3.35096549       2.15080924
C       -7.14552270       4.32099910       1.24396701
N       -6.19774452       5.22785843       0.98682266
N       -5.19663449       4.77064873       1.76507139
C       -3.89051484       5.41140721       1.87176426
H       -4.11641309       6.48009870       1.99548051
C       -3.17176647       4.92667497       3.15065583
C       -3.02255779       5.29468983       0.61829995
C       -3.32173952       4.44410656      -0.45960648
C       -2.49328154       4.38826956      -1.58560844
C       -1.35180029       5.18101421      -1.64750965
Br      -0.23693678       5.10747685      -3.17038739
C       -1.03273309       6.03425270      -0.59681685
C       -1.86506454       6.09310051       0.52441800
H        0.78187261       1.94355869       1.75330124
H       -0.62497087       3.35620511       3.17873668
H       -4.14689288       1.39270063       1.59951591
H       -2.72611169      -0.01010693       0.20080526
H       -5.03551311       2.17888569       3.74480742
H       -8.11254120       4.36566510       0.75985692
H       -2.11596201       5.21795983       3.16301874
H       -3.63417308       5.45029115       4.00122372
H       -4.20902397       3.81303569      -0.45264014
H       -2.75443721       3.72671516      -2.40644627
H       -0.14634769       6.66120549      -0.64221195
H       -1.60265034       6.78029999       1.32714107
C        0.88095123      -0.88095123       0.88095123
C        0.32098296      -1.95031734       1.57199946
C        1.13008125      -2.75589672       2.37879155
C        2.51152208      -2.51233299       2.49785599
C        3.04738403      -1.41575203       1.80063154
C        2.23986993      -0.60748715       0.99448205
C        3.34906963      -3.41688156       3.39475686
H        2.89783231      -3.34477439       4.39371343
N        4.72699752      -2.96801833       3.53827318
C        5.67596146      -3.39129163       2.68001106
N        6.88509893      -2.93219199       2.49375812
C        7.39134809      -3.77723003       1.54191069
N        6.56144008      -4.73475340       1.11623213
N        5.45660604      -4.44411254       1.83163603
C        4.21389438      -5.20423315       1.75555878
H        4.52984207      -6.25592073       1.80622950
C        3.34246324      -4.90970856       2.99692547
C        3.45202648      -5.04403141       0.43948969
C        3.76135987      -4.07073929      -0.52585955
C        3.03333359      -3.97969918      -1.71709011
C        1.98326837      -4.85985228      -1.95781580
Br       1.00437807      -4.73819629      -3.56854811
C        1.65686091      -5.83490272      -1.02159470
C        2.38943547      -5.92812964       0.16501794
H       -0.74199155      -2.16428082       1.49269805
H        0.66377968      -3.57866665       2.91746633
H        4.10531489      -1.17104917       1.86274537
H        2.68432735       0.22978788       0.46227055
H        4.87386617      -2.07901435       4.00632571
H        8.39689187      -3.69012810       1.15104325
H        2.32258546      -5.29230069       2.88205443
H        3.77671627      -5.47015005       3.83882164
H        4.57976473      -3.36789229      -0.37823750
H        3.30060603      -3.22189555      -2.44779549
H        0.84232155      -6.52989048      -1.20687080
H        2.12497131      -6.70972760       0.87539250
