74
Properties=species:S:1:pos:R:3 pbc="F F F"
C        1.77007300       1.77007300      -1.77007300
N        2.79252434       1.27025998      -2.40205919
N        3.33552904       2.31620199      -3.07394128
C        2.77849817       3.55011243      -2.97624536
S        1.41303554       3.49618595      -1.94731656
N        3.38899033       4.47208984      -3.66636546
C        4.43578697       3.77929881      -4.26681936
C        5.38486539       4.49093011      -5.15454474
C        4.40832686       2.43969681      -3.90307151
Br       5.57815998       1.09462796      -4.42779694
H        5.12514143       5.55126872      -5.23328654
H        5.36545317       4.06212464      -6.16122276
H        6.40442573       4.42045815      -4.76315681
C       -1.77007300      -1.77007300      -1.77007300
N       -2.78253182      -1.26693989      -2.41537180
N       -3.32883904      -2.31397770      -3.08285558
C       -2.78356475      -3.55179381      -2.96949740
S       -1.42671031      -3.50072888      -1.92909886
N       -3.39610392      -4.47444820      -3.65689350
C       -4.43148265      -3.77786192      -4.27256056
C       -5.37900631      -4.48897141      -5.16236252
C       -4.39540688      -2.43540057      -3.92028773
Br      -5.54873181      -1.08484642      -4.46700665
H       -5.12794874      -5.55218792      -5.22956003
H       -5.34703724      -4.06922941      -6.17253391
H       -6.40128310      -4.40616347      -4.78059412
C       -1.77007300       1.77007300       1.77007300
N       -1.37014394       2.95130813       2.14339144
N       -2.38302102       3.44175007       2.90090122
C       -3.49939457       2.69787286       3.10758853
S       -3.35947241       1.19570442       2.30136122
N       -4.40079765       3.27565838       3.85098960
C       -3.82208274       4.50379984       4.15602255
C       -4.54906791       5.47728603       5.00398631
C       -2.56871935       4.61343175       3.56894409
Br      -1.38865250       6.04556567       3.66636671
H       -5.52272225       5.07976162       5.30721282
H       -4.71959352       6.41061999       4.45858707
H       -3.97752315       5.70029969       5.91021785
C        1.77007300      -1.77007300       1.77007300
N        1.30212332      -2.86356209       2.29915810
N        2.33748788      -3.38298487       3.00519956
C        3.53389280      -2.74233730       3.02862586
S        3.45256153      -1.31577704       2.08819948
N        4.44924443      -3.33805762       3.74014357
C        3.79281306      -4.46591632       4.22317575
C        4.50923838      -5.42568278       5.09541909
C        2.48078664      -4.49993463       3.77037391
Br       1.18834747      -5.78710304       4.12513437
H        5.54189325      -5.10423928       5.26356417
H        4.53447504      -6.41853526       4.63579027
H        4.01601068      -5.50272989       6.06930012
C       -0.00445707       0.01189536      -1.78238275
H       -0.66409135       0.67374010      -2.43557963
H        0.65740317      -0.63156657      -2.45157240
C       -0.90989263      -0.90692880      -0.91072765
C        0.90977584       0.90977584      -0.90977584
C       -0.00465871       1.77757030       0.00794375
H       -0.66225468       2.44313916      -0.64384735
H        0.64322798       2.43503045       0.67728295
C       -1.78241447       0.00034974      -0.00472694
H       -2.45427497      -0.65498947       0.64260836
H       -2.43311707       0.67328779      -0.65473579
C       -0.91132561       0.90220522       0.91563759
C       -0.01476271      -0.02253852       1.78660255
H       -0.67934791      -0.69751639       2.42135241
H        0.63392994       0.61504881       2.47327442
C        0.01484550      -1.77751727      -0.01636693
H        0.67870853      -2.42144646      -0.68295456
H       -0.62264859      -2.45592969       0.64226336
C        1.78714474       0.01002794       0.00389507
H        2.44202412       0.67113390       0.66197326
H        2.45385902      -0.65136977      -0.64189061
C        0.91606151      -0.90478549       0.90901405
