109
Properties=species:S:1:pos:R:3 pbc="F F F"
C        0.00000000       0.00000000       0.00000000
C        0.88212299       0.88212299      -0.88212299
C        1.98911876       0.33788893      -1.51057962
C        2.79928687       1.14010125      -2.31857388
C        3.90855586       0.56188973      -2.93880177
C        4.73999821       1.32271938      -3.74994012
C        4.47878382       2.67917898      -3.95774352
Br       5.72995305       3.55077453      -5.09883400
C        3.36383240       3.28656750      -3.34203360
C        3.03543466       4.73070873      -3.52789535
O        3.71268339       5.47515852      -4.22583979
C        1.85001187       5.30923249      -2.85306264
C        1.57246605       6.67480837      -3.05143090
C        0.47321203       7.26740814      -2.44160075
C       -0.35007988       6.49776066      -1.63309077
C       -0.07258574       5.13896876      -1.43652505
C        1.03500485       4.50671580      -2.04086352
C        1.36060427       3.07236463      -1.85666990
C        0.56932148       2.22699052      -1.04968356
C        2.50207795       2.52087829      -2.50773564
H        2.22095307      -0.71597655      -1.36976103
H        4.14177393      -0.49261890      -2.79869126
H        5.59698705       0.84328809      -4.21963656
H        2.21835325       7.27975010      -3.68598512
H        0.26347878       8.32218682      -2.59823951
H       -1.21342342       6.95036719      -1.15039255
H       -0.75821365       4.59695006      -0.79178968
H       -0.30921454       2.60232952      -0.53453158
C       -0.88212299      -0.88212299      -0.88212299
C       -2.24801134      -0.92835873      -0.66121725
C       -3.05950465      -1.73337277      -1.46508458
C       -4.43335211      -1.75859284      -1.21730242
C       -5.27596019      -2.54462066      -1.99207685
C       -4.76123446      -3.32254314      -3.03192872
Br      -6.07187169      -4.32989665      -3.97779324
C       -3.37629684      -3.31400245      -3.30213420
C       -2.77031978      -4.12410953      -4.39960945
O       -3.43775278      -4.84412846      -5.13180047
C       -1.30796853      -4.07205842      -4.63228007
C       -0.77263884      -4.85015417      -5.67591231
C        0.59240168      -4.83804858      -5.93657402
C        1.42455588      -4.04946891      -5.15585851
C        0.89042450      -3.27575433      -4.11757824
C       -0.49052377      -3.26534148      -3.82671892
C       -1.09221196      -2.46025464      -2.73717220
C       -0.30939381      -1.63423226      -1.90236950
C       -2.49925382      -2.51408680      -2.51735126
H       -2.68139975      -0.33426719       0.14092938
H       -4.86838995      -1.16461190      -0.41484445
H       -6.34249068      -2.54308104      -1.77433998
H       -1.42526071      -5.46956287      -6.28926489
H        1.00044998      -5.44067605      -6.74367905
H        2.49465361      -4.03173811      -5.35025183
H        1.59899756      -2.68262007      -3.54690359
H        0.76573362      -1.56119269      -2.03218749
C       -0.88212299       0.88212299       0.88212299
C       -0.56760261       1.05016740       2.21981731
C       -1.37089184       1.85593366       3.03113650
C       -1.02743622       2.00564128       4.37616987
C       -1.79805297       2.79707894       5.21752579
C       -2.92942098       3.45592326       4.73036208
Br      -3.85383865       4.49118279       6.03454014
C       -3.29718187       3.32044628       3.37480534
C       -4.49460545       4.00050347       2.79892984
O       -5.22942981       4.71709597       3.46715593
C       -4.82787421       3.81755695       1.36687585
C       -5.96492679       4.47409686       0.85968168
C       -6.32236279       4.33607133      -0.47621320
C       -5.54542581       3.54257516      -1.30722942
C       -4.41423501       2.88975309      -0.80108002
C       -4.02380395       3.00890011       0.54988011
C       -2.83423371       2.33396100       1.12144409
C       -1.99639083       1.51189441       0.33771033
C       -2.51821542       2.51296237       2.49951408
H        0.30738984       0.55086074       2.63126665
H       -0.15210260       1.50648403       4.78925966
H       -1.50453725       2.89414059       6.26123386
H       -6.57544381       5.09719510       1.51144956
H       -7.20124788       4.84530066      -0.86264342
H       -5.81512652       3.42685654      -2.35464674
H       -3.85240255       2.28511361      -1.50699007
H       -2.19729454       1.34636015      -0.71600813
C        0.88212299      -0.88212299       0.88212299
C        0.45083327      -2.14852043       1.23823360
C        1.25366194      -2.95955842       2.04474164
C        0.79087638      -4.23173147       2.38663952
C        1.55662362      -5.07011416       3.18591992
C        2.80254549      -4.65289461       3.66026622
Br       3.70006266      -5.94064779       4.73885114
C        3.29217726      -3.37174963       3.32850661
C        4.61538548      -2.87267556       3.80597772
O        5.35590699      -3.54438020       4.51339451
C        5.07291814      -1.51649446       3.42289441
C        6.32595354      -1.08011694       3.89263485
C        6.80234376       0.18314704       3.56302420
C        6.02860825       1.01220850       2.76437181
C        4.78181982       0.57664056       2.29772880
C        4.26910249      -0.69965418       2.61382751
C        2.95527138      -1.19534712       2.13902030
C        2.11358209      -0.40926481       1.32314866
C        2.51970691      -2.50042475       2.51056022
H       -0.51511602      -2.50443346       0.88542011
H       -0.17562575      -4.58915570       2.03431634
H        1.16861047      -6.05612411       3.43517712
H        6.93398801      -1.73036902       4.51973144
H        7.77057856       0.51502222       3.92834877
H        6.39080540       2.00314946       2.49968038
H        4.22958038       1.27669331       1.67763903
H        2.40315663       0.59031312       1.01480305
