126
Properties=species:S:1:pos:R:3 pbc="F F F"
O        5.42063618       0.40746361      -3.39844483
C        5.07115414       1.56186980      -3.61322560
C        3.80127731       2.10514551      -3.08952737
C        2.99683058       1.29263355      -2.28162022
C        1.79176621       1.79176621      -1.79176621
C        1.37792881       3.08644393      -2.10660967
C        2.17610833       3.89679388      -2.91977521
C        3.39705828       3.41186459      -3.39474274
O        4.20628577       4.17494532      -4.26235026
C        4.42105431       5.52670952      -4.03430389
O        3.95750057       6.19663037      -3.12630915
C        5.35501395       6.06837401      -5.06132177
C        5.93084759       5.26815655      -6.06013302
C        6.83176255       5.82269461      -6.97547659
C        7.15519923       7.17644558      -6.89823441
Br       8.38248953       7.91861278      -8.12814689
C        6.58272245       7.98428114      -5.91756874
C        5.68424128       7.43044141      -5.00007056
H        5.70103519       2.23755472      -4.21363129
H        3.31191582       0.27908992      -2.04250683
H        0.43499090       3.47370009      -1.72785975
H        1.83027627       4.89709146      -3.16809395
H        5.69930046       4.20947639      -6.14350983
H        7.27790428       5.19079274      -7.73968005
H        6.83164289       9.04135736      -5.85406219
H        5.24794999       8.06883873      -4.23302693
O       -5.57258903      -0.52903592      -3.12491966
C       -5.17516091      -1.64920904      -3.42187961
C       -3.85115109      -2.14773347      -2.99706563
C       -3.04693728      -1.33542803      -2.18871905
C       -1.79176621      -1.79176621      -1.79176621
C       -1.32834513      -3.04292547      -2.19971182
C       -2.12671756      -3.85244822      -3.01351164
C       -3.39614741      -3.41194313      -3.39557506
O       -4.21106626      -4.17207766      -4.26043743
C       -4.34111373      -5.54386550      -4.09708848
O       -3.79293418      -6.23390625      -3.25359966
C       -5.30097469      -6.08177475      -5.10196029
C       -5.97304550      -5.26328685      -6.02280481
C       -6.89305352      -5.81808573      -6.91879450
C       -7.13975106      -7.18995054      -6.90017761
Br      -8.39280196      -7.93341158      -8.10303565
C       -6.47163663      -8.01526313      -5.99767257
C       -5.55389821      -7.46140997      -5.09944507
H       -5.80098020      -2.32631501      -4.02492598
H       -3.40127605      -0.35506865      -1.87716786
H       -0.34662797      -3.39646531      -1.89345746
H       -1.74293535      -4.81740041      -3.33512592
H       -5.80272854      -4.19042081      -6.05913732
H       -7.41384839      -5.17257310      -7.62195557
H       -6.66046809      -9.08644942      -5.98014493
H       -5.04242340      -8.11409801      -4.39329424
O       -1.15636586       5.93214971       2.13802904
C       -2.05293726       5.40656193       2.78675036
C       -2.33693747       3.95959534       2.69941739
C       -1.52546820       3.15586078       1.88975537
C       -1.79176621       1.79176621       1.79176621
C       -2.86214743       1.22473031       2.48410467
C       -3.67856907       2.02705692       3.28705143
C       -3.40316343       3.39111523       3.40938694
O       -4.23342225       4.24622655       4.16393254
C       -4.70952520       3.86290291       5.40963961
O       -4.50414969       2.80150621       5.97478419
C       -5.50655415       4.97128101       6.00687457
C       -5.67767877       6.21055854       5.37089985
C       -6.40465468       7.22925162       5.99602746
C       -6.96536572       7.01102793       7.25348556
Br      -7.93527389       8.39386936       8.10010595
C       -6.81145591       5.78166200       7.89145442
C       -6.08239313       4.76350036       7.26885976
H       -2.68423508       6.00612581       3.46186030
H       -0.69610555       3.59674489       1.34066212
H       -3.07231581       0.16083831       2.40339662
H       -4.51782534       1.57123078       3.80640556
H       -5.25037150       6.41025030       4.39166487
H       -6.52331055       8.18803761       5.49702891
H       -7.24794284       5.60670892       8.87241069
H       -5.96185714       3.80884415       7.77911436
O        1.16197437      -5.93358985       2.13098038
C        2.05681001      -5.40763894       2.78180060
C        2.33880036      -3.96012742       2.69702242
C        1.52733985      -3.15639552       1.88734899
C        1.79176621      -1.79176621       1.79176621
C        2.86028569      -1.22417527       2.48652145
C        3.67670639      -2.02648199       3.28948904
C        3.40313645      -3.39112446       3.40940470
O        4.23354370      -4.24612384       4.16391380
C        4.70724119      -3.86393928       5.41088724
O        4.49946391      -2.80368300       5.97729318
C        5.50502500      -4.97202148       6.00766326
C        5.67891882      -6.21010406       5.37011427
C        6.40647606      -7.22864601       5.99481168
C        6.96500808      -7.01145357       7.25341756
Br       7.93570833      -8.39411193       8.09942895
C        6.80834074      -5.78326010       7.89297149
C        6.07869368      -4.76525642       7.27080316
H        2.68799630      -6.00726762       3.45695727
H        0.69944065      -3.59769100       1.33638091
H        3.06900064      -0.15985623       2.40769387
H        4.51452099      -1.57018598       3.81075472
H        5.25335239      -6.40897891       4.38995538
H        6.52728467      -8.18651749       5.49457490
H        7.24312082      -5.60911289       8.87482873
H        5.95599444      -3.81153411       7.78228710
C       -0.00445707       0.01189536      -1.78238275
H       -0.66409135       0.67374010      -2.43557963
H        0.65740317      -0.63156657      -2.45157240
C       -0.90989263      -0.90692880      -0.91072765
C        0.90977584       0.90977584      -0.90977584
C       -0.00465871       1.77757030       0.00794375
H       -0.66225468       2.44313916      -0.64384735
H        0.64322798       2.43503045       0.67728295
C       -1.78241447       0.00034974      -0.00472694
H       -2.45427497      -0.65498947       0.64260836
H       -2.43311707       0.67328779      -0.65473579
C       -0.91132561       0.90220522       0.91563759
C       -0.01476271      -0.02253852       1.78660255
H       -0.67934791      -0.69751639       2.42135241
H        0.63392994       0.61504881       2.47327442
C        0.01484550      -1.77751727      -0.01636693
H        0.67870853      -2.42144646      -0.68295456
H       -0.62264859      -2.45592969       0.64226336
C        1.78714474       0.01002794       0.00389507
H        2.44202412       0.67113390       0.66197326
H        2.45385902      -0.65136977      -0.64189061
C        0.91606151      -0.90478549       0.90901405
