126
Properties=species:S:1:pos:R:3 pbc="F F F"
C        1.82042826       1.82042826      -1.82042826
C        2.47366055       0.92916309      -2.85312629
O        2.02322224       0.84950903      -3.99251260
N        3.58633390       0.26807469      -2.36648314
C        4.46192913      -0.62154529      -3.03751178
C        4.34216676      -0.88029841      -4.40988590
C        5.21643708      -1.76271853      -5.04480116
Br       5.04050980      -2.09193653      -6.89883519
C        6.22150164      -2.40202926      -4.32913560
C        6.36151658      -2.15377278      -2.96283755
C        5.49375086      -1.26521718      -2.30289095
C        5.67101385      -1.00566416      -0.82841918
O        4.97151473      -0.15363093      -0.27700633
C        6.71625191      -1.79763837      -0.05850621
C        6.70130579      -1.47942466       1.42883629
H        2.55822630       2.31582037      -1.18515416
H        1.18339060       2.56540983      -2.30234079
H        3.78778507       0.38556545      -1.36817522
H        3.57581535      -0.40016788      -5.00976590
H        6.90154011      -3.09138626      -4.82475934
H        7.16325952      -2.66845551      -2.44125464
H        7.70640080      -1.55539785      -0.45869624
H        6.51904205      -2.86699813      -0.18759512
H        6.89963223      -0.41724451       1.60666790
H        7.46717383      -2.06158091       1.95025112
H        5.72870466      -1.71835919       1.87147940
C       -1.82042826      -1.82042826      -1.82042826
C       -2.59851266      -2.74577328      -0.91166398
O       -3.76147797      -2.49788844      -0.60587746
N       -1.86491799      -3.84662773      -0.50934601
C       -2.25920358      -4.93150630       0.31281426
C       -3.57609875      -5.06858286       0.77292736
C       -3.93640655      -6.14542435       1.58331118
Br      -5.72066972      -6.31400557       2.18726682
C       -2.99712098      -7.10159143       1.95010443
C       -1.68171820      -6.98672172       1.49785857
C       -1.29702463      -5.91140971       0.67700971
C        0.12743942      -5.81416909       0.19296079
O        0.43490108      -4.92566622      -0.60412500
C        1.14959473      -6.82188642       0.69517194
C        2.55095557      -6.52664063       0.18264022
H       -1.17719264      -2.37262401      -2.50938418
H       -2.49759214      -1.17233596      -2.38121312
H       -0.88002794      -3.86838505      -0.79311276
H       -4.34410695      -4.34915702       0.50785059
H       -3.27863110      -7.93988633       2.58360424
H       -0.97990221      -7.75796095       1.80180451
H        0.85541711      -7.82050133       0.35538503
H        1.16678368      -6.79618591       1.78976319
H        2.58271776      -6.54664874      -0.91178884
H        3.25844424      -7.27207884       0.55829278
H        2.88851570      -5.53796301       0.51058124
C       -1.82042826       1.82042826       1.82042826
C       -2.32957045       2.96007082       0.96630865
O       -3.45650387       2.92872238       0.48001762
N       -1.40890492       3.98258399       0.82940282
C       -1.53401215       5.21062933       0.13325414
C       -2.73945037       5.59943163      -0.46712774
C       -2.83402081       6.81304481      -1.14854590
Br      -4.47236064       7.32051891      -1.94547108
C       -1.73555803       7.65862986      -1.24557991
C       -0.52755838       7.29283632      -0.64981335
C       -0.41043062       6.07576172       0.04523229
C        0.90206474       5.70699754       0.68883608
O        0.97103448       4.68760200       1.37832262
C        2.10848975       6.60828240       0.47732710
C        3.36861944       6.04512262       1.11654167
H       -1.22071961       2.17785965       2.66062157
H       -2.65095708       1.21310415       2.18707999
H       -0.48243007       3.82142953       1.23766614
H       -3.62441660       4.97369376      -0.41269699
H       -1.80978764       8.60388857      -1.77876302
H        0.30493421       7.98419281      -0.74319996
H        1.89824140       7.58731929       0.92062130
H        2.28424954       6.72145094      -0.59756236
H        3.24014955       5.91913896       2.19673042
H        4.21397937       6.71957086       0.94975033
H        3.62093000       5.06787553       0.69192055
C        1.82042826      -1.82042826       1.82042826
C        2.02059555      -1.10014329       3.13521108
O        1.35110626      -1.39198533       4.12215228
N        3.00984306      -0.13594526       3.07510341
C        3.49210263       0.71490645       4.10069944
C        3.04722832       0.60044391       5.42496985
C        3.53703972       1.45306347       6.41454346
Br       2.92760306       1.27634852       8.19615393
C        4.47411167       2.43180359       6.10629989
C        4.93445662       2.55869217       4.79481689
C        4.45720945       1.70765828       3.78187347
C        4.97679374       1.85763262       2.37460775
O        4.62920175       1.04745890       1.51314729
C        5.92512607       3.00248981       2.05448350
C        6.27909637       3.06243396       0.57638243
H        2.76651316      -1.99105028       1.30163740
H        1.30435458      -2.77037029       1.97641635
H        3.42466792       0.03678477       2.15364260
H        2.32035108      -0.15216812       5.71289418
H        4.85402911       3.09739751       6.87828160
H        5.67119180       3.33180077       4.59666761
H        6.84677351       2.86734311       2.63026878
H        5.45023190       3.94780712       2.33721426
H        6.76279468       2.13611488       0.24904002
H        6.96517234       3.89257747       0.38274695
H        5.38320287       3.20828263      -0.03605418
C       -0.00445707       0.01189536      -1.78238275
H       -0.66409135       0.67374010      -2.43557963
H        0.65740317      -0.63156657      -2.45157240
C       -0.90989263      -0.90692880      -0.91072765
C        0.90977584       0.90977584      -0.90977584
C       -0.00465871       1.77757030       0.00794375
H       -0.66225468       2.44313916      -0.64384735
H        0.64322798       2.43503045       0.67728295
C       -1.78241447       0.00034974      -0.00472694
H       -2.45427497      -0.65498947       0.64260836
H       -2.43311707       0.67328779      -0.65473579
C       -0.91132561       0.90220522       0.91563759
C       -0.01476271      -0.02253852       1.78660255
H       -0.67934791      -0.69751639       2.42135241
H        0.63392994       0.61504881       2.47327442
C        0.01484550      -1.77751727      -0.01636693
H        0.67870853      -2.42144646      -0.68295456
H       -0.62264859      -2.45592969       0.64226336
C        1.78714474       0.01002794       0.00389507
H        2.44202412       0.67113390       0.66197326
H        2.45385902      -0.65136977      -0.64189061
C        0.91606151      -0.90478549       0.90901405
