134
Properties=species:S:1:pos:R:3 pbc="F F F"
C        1.82042826       1.82042826      -1.82042826
C        2.47366055       0.92916309      -2.85312629
O        2.02322224       0.84950903      -3.99251260
N        3.58633390       0.26807469      -2.36648314
C        4.46192913      -0.62154529      -3.03751178
C        4.34216676      -0.88029841      -4.40988590
C        5.21643708      -1.76271853      -5.04480116
C        6.22150164      -2.40202926      -4.32913560
C        6.36151658      -2.15377278      -2.96283755
C        5.49375086      -1.26521718      -2.30289095
C        5.67101385      -1.00566416      -0.82841918
O        4.97151473      -0.15363093      -0.27700633
C        6.71625191      -1.79763837      -0.05850621
C        6.70130579      -1.47942466       1.42883629
H        2.55822630       2.31582037      -1.18515416
H        1.18339060       2.56540983      -2.30234079
H        3.78778507       0.38556545      -1.36817522
H        3.57581535      -0.40016788      -5.00976590
H        6.90154011      -3.09138626      -4.82475934
H        7.16325952      -2.66845551      -2.44125464
H        7.70640080      -1.55539785      -0.45869624
H        6.51904205      -2.86699813      -0.18759512
H        6.89963223      -0.41724451       1.60666790
H        7.46717383      -2.06158091       1.95025112
H        5.72870466      -1.71835919       1.87147940
C        5.08248491      -2.01338724      -6.45647464
C        4.97029997      -2.22332228      -7.63875118
Br       4.78890641      -2.56276949      -9.55039235
C       -1.82042826      -1.82042826      -1.82042826
C       -3.00485502      -0.98965932      -2.26143558
O       -3.02870069      -0.46522461      -3.37131857
N       -3.99895940      -0.91896432      -1.30296800
C       -5.25314887      -0.26185819      -1.36288856
C       -5.70318062       0.36464489      -2.53321853
C       -6.94140810       1.00651654      -2.56362815
C       -7.75131654       1.03756096      -1.43485240
C       -7.32433260       0.41478766      -0.26103641
C       -6.08141364      -0.24132924      -0.20868175
C       -5.64625627      -0.91527050       1.06775789
O       -4.60263709      -1.57105464       1.07880158
C       -6.51189302      -0.77541136       2.31018463
C       -5.88451965      -1.43650601       3.52798082
H       -2.12868406      -2.69201808      -1.23849870
H       -1.23025040      -2.13795337      -2.68293745
H       -3.79236165      -1.35212028      -0.39704382
H       -5.10691388       0.36143371      -3.43993320
H       -8.71584800       1.53995832      -1.45902350
H       -7.98925513       0.45639515       0.59680134
H       -7.48226225      -1.24498979       2.11755285
H       -6.65474517       0.28846082       2.52664531
H       -5.72705690      -2.50680750       3.35814458
H       -6.53455962      -1.32142411       4.40064192
H       -4.91386196      -0.98704516       3.76204106
C       -7.39069891       1.64089980      -3.77577321
C       -7.76697996       2.17219579      -4.79094470
Br      -8.37539460       3.03125646      -6.43239113
C       -1.82042826       1.82042826       1.82042826
C       -1.06215037       3.10025346       2.09354609
O       -1.29454544       4.12008932       1.45060911
N       -0.13733558       2.97033369       3.11322245
C        0.73090267       3.94667266       3.66212563
C        0.67933312       5.28905000       3.26203738
C        1.54779586       6.22908292       3.81723266
C        2.48031402       5.85264930       4.77627269
C        2.54417955       4.52204664       5.19271426
C        1.67602144       3.55817453       4.64927155
C        1.75741901       2.12898905       5.12219884
O        0.93066962       1.31036064       4.71519912
C        2.85501358       1.73424316       6.09789017
C        2.85003961       0.24341306       6.39967140
H       -2.04352687       1.27526773       2.74040623
H       -2.74487171       2.02895671       1.27731280
H       -0.01232202       2.02918321       3.50002051
H       -0.03571758       5.62956614       2.52012965
H        3.15834673       6.58604412       5.20721581
H        3.28249657       4.27009739       5.94845782
H        2.70670350       2.28182231       7.03458037
H        3.82635436       1.99886690       5.66712650
H        1.89578415      -0.06676659       6.83827056
H        3.64732241      -0.00432535       7.10698958
H        3.00681172      -0.34206538       5.48774317
C        1.47799418       7.60508318       3.39848332
C        1.41953528       8.75748340       3.04778075
Br       1.32501217      10.62081708       2.48072435
C        1.82042826      -1.82042826       1.82042826
C        0.95451951      -2.93265532       2.36877509
O        0.96137023      -4.04810195       1.85577170
N        0.21044928      -2.54321514       3.46722730
C       -0.68534866      -3.30697855       4.25626574
C       -0.86150802      -4.68230512       4.05095715
C       -1.75204698      -5.40961047       4.84095623
C       -2.48140061      -4.78474398       5.84526460
C       -2.31643012      -3.41713948       6.06987200
C       -1.42149174      -2.66491299       5.28800338
C       -1.25316030      -1.19090881       5.55602037
O       -0.39744406      -0.55807839       4.93425581
C       -2.13982241      -0.52213335       6.59480881
C       -1.90367502       0.97835422       6.67507409
H        2.24088499      -1.20176740       2.61654844
H        2.62306080      -2.22697216       1.20110826
H        0.26209455      -1.55274976       3.72668144
H       -0.30971440      -5.21317850       3.28194929
H       -3.17696697      -5.35238245       6.45949771
H       -2.90021082      -2.96809055       6.86817892
H       -1.92792246      -0.96306573       7.57455592
H       -3.18869326      -0.69580783       6.33252447
H       -0.86470631       1.20019457       6.94062070
H       -2.55285273       1.42568954       7.43388409
H       -2.11553300       1.46082324       5.71522231
C       -1.91723975      -6.82291943       4.61989264
C       -2.05558870      -8.00656569       4.43475188
Br      -2.27928725      -9.92042159       4.13539493
C       -0.00445707       0.01189536      -1.78238275
H       -0.66409135       0.67374010      -2.43557963
H        0.65740317      -0.63156657      -2.45157240
C       -0.90989263      -0.90692880      -0.91072765
C        0.90977584       0.90977584      -0.90977584
C       -0.00465871       1.77757030       0.00794375
H       -0.66225468       2.44313916      -0.64384735
H        0.64322798       2.43503045       0.67728295
C       -1.78241447       0.00034974      -0.00472694
H       -2.45427497      -0.65498947       0.64260836
H       -2.43311707       0.67328779      -0.65473579
C       -0.91132561       0.90220522       0.91563759
C       -0.01476271      -0.02253852       1.78660255
H       -0.67934791      -0.69751639       2.42135241
H        0.63392994       0.61504881       2.47327442
C        0.01484550      -1.77751727      -0.01636693
H        0.67870853      -2.42144646      -0.68295456
H       -0.62264859      -2.45592969       0.64226336
C        1.78714474       0.01002794       0.00389507
H        2.44202412       0.67113390       0.66197326
H        2.45385902      -0.65136977      -0.64189061
C        0.91606151      -0.90478549       0.90901405
