150
Properties=species:S:1:pos:R:3 pbc="F F F"
C        1.79143580       1.79143580      -1.79143580
C        3.05097023       2.17700732      -1.34697996
C        3.85152401       2.99154147      -2.15575913
C        3.40747128       3.43491907      -3.41319900
C        2.13289762       3.03148342      -3.83297001
C        1.32852013       2.21191359      -3.03263853
N        4.23392452       4.30304663      -4.15056275
C        3.87853682       5.16292858      -5.13379278
S        5.08387201       6.18010298      -5.83243445
C        3.89290713       6.96181909      -6.79886341
C        4.29276154       8.10326791      -7.66606431
C        2.66466853       6.36125558      -6.57666262
N        2.67608055       5.35775367      -5.62033509
C        1.39559731       6.72485097      -7.20137226
C        0.21943160       6.64130878      -6.43744616
C       -1.02382549       6.95130516      -6.99541375
C       -1.09910549       7.34622440      -8.32773402
Br      -2.77726805       7.76416642      -9.09006347
C        0.05429480       7.42331542      -9.10580467
C        1.29693023       7.10514229      -8.54601724
H        3.41789083       1.86015968      -0.37502983
H        4.82607492       3.29465215      -1.78022353
H        1.74370884       3.33768437      -4.80083352
H        0.34673700       1.91677968      -3.39307171
H        5.19044056       4.35369112      -3.82668466
H        3.52066543       8.87850103      -7.67325592
H        4.45621769       7.76202686      -8.69296938
H        5.21758497       8.57627280      -7.31951420
H        0.26838529       6.32322712      -5.39735150
H       -1.91903868       6.87407870      -6.38350546
H       -0.00295910       7.71774441     -10.15084152
H        2.17399795       7.13606889      -9.18501734
C       -1.79143580      -1.79143580      -1.79143580
C       -2.04686565      -1.42123270      -3.10685916
C       -2.86197070      -2.22893581      -3.90791809
C       -3.43521264      -3.41114755      -3.40922916
C       -3.16116952      -3.75693011      -2.07925141
C       -2.34201007      -2.95769175      -1.27337042
N       -4.29602312      -4.14597060      -4.24554016
C       -5.25503779      -5.03200162      -3.88821876
S       -6.23309262      -5.74745050      -5.11586632
C       -7.17449410      -6.55619265      -3.92290289
C       -8.34868997      -7.36613161      -4.34727219
C       -6.65011073      -6.28194232      -2.67053368
N       -5.57574229      -5.40590740      -2.67251962
C       -7.15446046      -6.77550889      -1.39185120
C       -7.09722990      -5.92883841      -0.27211822
C       -7.54109920      -6.36204435       0.98025012
C       -8.04500130      -7.65153456       1.12168293
Br      -8.64437805      -8.24544178       2.81285798
C       -8.09861503      -8.51093355       0.02613370
C       -7.64651823      -8.07647023      -1.22510130
H       -1.62774502      -0.50740969      -3.51792562
H       -3.06184566      -1.91068689      -4.92841806
H       -3.57101859      -4.66570541      -1.64550274
H       -2.14939782      -3.25976637      -0.24742419
H       -4.25034069      -3.89620430      -5.22427134
H       -9.17670370      -7.25499637      -3.64072231
H       -8.07895714      -8.42507067      -4.40718613
H       -8.72341852      -7.06026058      -5.32969287
H       -6.69484818      -4.92211965      -0.37199608
H       -7.48156107      -5.68833855       1.83135414
H       -8.47848548      -9.52364540       0.13650405
H       -7.66351296      -8.77907205      -2.05249917
C       -1.79143580       1.79143580       1.79143580
C       -3.11602659       2.02136611       1.43756482
C       -3.91720009       2.83656940       2.24505512
C       -3.40959713       3.43523596       3.41075626
C       -2.07053838       3.18654265       3.74027002
C       -1.26435468       2.36748769       2.94122987
N       -4.24780891       4.29449088       4.14523410
C       -3.89188782       5.27219172       5.01117863
S       -5.12342824       6.24248154       5.73049966
C       -3.93295075       7.21396289       6.50667600
C       -4.36297163       8.39387493       7.30524721
C       -2.67698624       6.70435020       6.22125030
N       -2.67574144       5.61681984       5.36160802
C       -1.39887566       7.23535624       6.68758864
C       -0.29126186       7.18205179       5.82487289
C        0.96055631       7.65127363       6.23217611
C        1.11365794       8.17688070       7.51163016
Br       2.80422438       8.81062919       8.07055703
C        0.03046902       8.22712733       8.38675658
C       -1.22010934       7.74967772       7.97830272
H       -3.53434377       1.58220236       0.53653421
H       -4.94530529       3.01618738       1.93945794
H       -1.62947852       3.61670107       4.63604714
H       -0.23115868       2.19496567       3.23046403
H       -5.22937460       4.23028207       3.91115967
H       -3.67090137       9.23062931       7.17089171
H       -4.40282347       8.13947510       8.36891537
H       -5.35549049       8.74906816       7.00881332
H       -0.40011496       6.76288539       4.82596357
H        1.80223992       7.59426286       5.54652254
H        0.15024615       8.62403698       9.39183599
H       -2.03700785       7.76495276       8.69312357
C        1.79143580      -1.79143580       1.79143580
C        1.62427001      -1.77920124       3.17148626
C        2.44033653      -2.58328080       3.97520728
C        3.43392528      -3.40518471       3.41647935
C        3.57985120      -3.39461293       2.02288691
C        2.76360287      -2.59787775       1.21159162
N        4.26298897      -4.14175762       4.28278730
C        5.49557498      -4.64390829       4.03577491
S        6.34004466      -5.45187479       5.30448999
C        7.72079377      -5.63919858       4.29359729
C        8.95544424      -6.25349658       4.85315295
C        7.43357235      -5.13191502       3.03709937
N        6.17649194      -4.55987944       2.91779791
C        8.33451989      -5.09921375       1.88808690
C        8.28217334      -3.99482470       1.02118850
C        9.10321509      -3.92740942      -0.10773108
C        9.98401989      -4.97008215      -0.37924912
Br      11.09535932      -4.88732718      -1.90572466
C       10.04219250      -6.07995391       0.46126848
C        9.21339288      -6.14771129       1.58698560
H        0.87278122      -1.14607515       3.63422396
H        2.30306426      -2.54457395       5.05331240
H        4.32632382      -4.01842588       1.53747703
H        2.90405979      -2.61832638       0.13420222
H        3.92729205      -4.20935767       5.23416662
H        9.84993413      -5.75579310       4.46669516
H        9.00453455      -7.31504898       4.59163041
H        8.99274326      -6.17582352       5.94480520
H        7.58854385      -3.17969689       1.22072317
H        9.03962036      -3.06356089      -0.76463577
H       10.71904136      -6.90259306       0.24399240
H        9.25133700      -7.04092532       2.20282186
C       -0.00445707       0.01189536      -1.78238275
H       -0.66409135       0.67374010      -2.43557963
H        0.65740317      -0.63156657      -2.45157240
C       -0.90989263      -0.90692880      -0.91072765
C        0.90977584       0.90977584      -0.90977584
C       -0.00465871       1.77757030       0.00794375
H       -0.66225468       2.44313916      -0.64384735
H        0.64322798       2.43503045       0.67728295
C       -1.78241447       0.00034974      -0.00472694
H       -2.45427497      -0.65498947       0.64260836
H       -2.43311707       0.67328779      -0.65473579
C       -0.91132561       0.90220522       0.91563759
C       -0.01476271      -0.02253852       1.78660255
H       -0.67934791      -0.69751639       2.42135241
H        0.63392994       0.61504881       2.47327442
C        0.01484550      -1.77751727      -0.01636693
H        0.67870853      -2.42144646      -0.68295456
H       -0.62264859      -2.45592969       0.64226336
C        1.78714474       0.01002794       0.00389507
H        2.44202412       0.67113390       0.66197326
H        2.45385902      -0.65136977      -0.64189061
C        0.91606151      -0.90478549       0.90901405
