158
Properties=species:S:1:pos:R:3 pbc="F F F"
C        1.79143580       1.79143580      -1.79143580
C        3.05097023       2.17700732      -1.34697996
C        3.85152401       2.99154147      -2.15575913
C        3.40747128       3.43491907      -3.41319900
C        2.13289762       3.03148342      -3.83297001
C        1.32852013       2.21191359      -3.03263853
N        4.23392452       4.30304663      -4.15056275
C        3.87853682       5.16292858      -5.13379278
S        5.08387201       6.18010298      -5.83243445
C        3.89290713       6.96181909      -6.79886341
C        4.29276154       8.10326791      -7.66606431
C        2.66466853       6.36125558      -6.57666262
N        2.67608055       5.35775367      -5.62033509
C        1.39559731       6.72485097      -7.20137226
C        0.21943160       6.64130878      -6.43744616
C       -1.02382549       6.95130516      -6.99541375
C       -1.09910549       7.34622440      -8.32773402
C        0.05429480       7.42331542      -9.10580467
C        1.29693023       7.10514229      -8.54601724
H        3.41789083       1.86015968      -0.37502983
H        4.82607492       3.29465215      -1.78022353
H        1.74370884       3.33768437      -4.80083352
H        0.34673700       1.91677968      -3.39307171
H        5.19044056       4.35369112      -3.82668466
H        3.52066543       8.87850103      -7.67325592
H        4.45621769       7.76202686      -8.69296938
H        5.21758497       8.57627280      -7.31951420
H        0.26838529       6.32322712      -5.39735150
H       -1.91903868       6.87407870      -6.38350546
H       -0.00295910       7.71774441     -10.15084152
H        2.17399795       7.13606889      -9.18501734
C       -2.37771425       7.66465859      -8.90856041
C       -3.44854909       7.93134722      -9.39500252
Br      -5.17999845       8.36256019     -10.18153827
C       -1.79143580      -1.79143580      -1.79143580
C       -2.15418517      -1.35891467      -3.06185767
C       -2.96882773      -2.16750634      -3.86249054
C       -3.43499138      -3.41283275      -3.40776521
C       -3.05424832      -3.82070837      -2.12239435
C       -2.23473578      -3.02057831      -1.31775815
N       -4.30191006      -4.14965797      -4.23596586
C       -5.17962571      -5.11647746      -3.87915501
S       -6.19000091      -5.81771372      -5.08869481
C       -7.00045633      -6.75750712      -3.89562618
C       -8.14807442      -7.61475654      -4.29926281
C       -6.41334700      -6.52677398      -2.66246576
N       -5.39697687      -5.58412450      -2.67306793
C       -6.80218779      -7.12941958      -1.39021318
C       -6.72400873      -6.35088110      -0.22329671
C       -7.05801660      -6.88785794       1.02298111
C       -7.47183351      -8.21366914       1.11064973
C       -7.54405622      -9.00612846      -0.03323021
C       -7.20185680      -8.46743254      -1.27880043
H       -1.81940502      -0.39630300      -3.43737232
H       -3.25385244      -1.80114719      -4.84595098
H       -3.37862488      -4.77907552      -1.72452634
H       -1.95757897      -3.37163409      -0.32737531
H       -4.33545049      -3.83806315      -5.19730270
H       -8.93353885      -7.60121962      -3.53766391
H       -7.81856790      -8.64822212      -4.44442391
H       -8.60401540      -7.27444647      -5.23491010
H       -6.39130668      -5.31586565      -0.28179159
H       -6.98446381      -6.26501472       1.91093306
H       -7.85328694     -10.04628801       0.03394813
H       -7.22972482      -9.11773406      -2.14762530
C       -7.81505633      -8.77291167       2.39246325
C       -8.10250544      -9.24127729       3.46598207
Br      -8.56728633      -9.99858488       5.20177120
C       -1.79143580       1.79143580       1.79143580
C       -3.15348229       1.89023461       1.53124062
C       -3.95532967       2.70586913       2.33762580
C       -3.41161723       3.43517017       3.40880195
C       -2.03550062       3.31682221       3.64502822
C       -1.22771611       2.49843550       2.84692063
N       -4.25943686       4.28576344       4.14233359
C       -3.92038257       5.35555105       4.89932456
S       -5.16934006       6.28536572       5.64170366
C       -4.00727904       7.40496839       6.24134221
C       -4.47097113       8.61047211       6.98065052
C       -2.73897945       6.97046755       5.89313973
N       -2.71360294       5.81918207       5.12138430
C       -1.47714757       7.63354145       6.21113152
C       -0.43762568       7.59374864       5.26681221
C        0.79867601       8.18857581       5.53299363
C        1.00476036       8.82770866       6.75190462
C       -0.00929622       8.86733816       7.70678051
C       -1.24377674       8.26433446       7.43997856
H       -3.60148576       1.34797681       0.70361776
H       -5.01495076       2.78115626       2.10484359
H       -1.56455588       3.85142638       4.46624448
H       -0.16486229       2.42924090       3.06248519
H       -5.24733098       4.12817101       3.99531435
H       -3.86225393       9.48347750       6.72669095
H       -4.40887935       8.44210356       8.06023102
H       -5.50897014       8.86368713       6.74071471
H       -0.58718684       7.08681540       4.31496168
H        1.58768963       8.13946388       4.78677122
H        0.15341893       9.35349142       8.66555434
H       -2.00251435       8.27625336       8.21631647
C        2.27736283       9.44036492       7.03250267
C        3.34316740       9.95346453       7.26750354
Br       5.06648325      10.78310320       7.64748006
C        1.79143580      -1.79143580       1.79143580
C        1.76004537      -1.64172568       3.17318646
C        2.57597453      -2.44699432       3.97585575
C        3.43476963      -3.40696620       3.41385351
C        3.44580138      -3.53320603       2.01834363
C        2.62831428      -2.73586776       1.20889020
N        4.27556860      -4.14105451       4.27091078
C        5.42955046      -4.77966324       3.96604448
S        6.31819995      -5.55061102       5.22759847
C        7.57301339      -5.95861655       4.12195970
C        8.79706068      -6.63763660       4.62739648
C        7.21155718      -5.53851082       2.85251873
N        6.00406692      -4.86048471       2.78961767
C        7.99670482      -5.69419842       1.63091730
C        7.95827494      -4.67050292       0.66940867
C        8.66919660      -4.78228977      -0.52859295
C        9.42448252      -5.92497410      -0.77460369
C        9.46565857      -6.95698929       0.16076702
C        8.74670618      -6.84507427       1.35630932
H        1.11539430      -0.90073896       3.63694707
H        2.54739318      -2.30049525       5.05306218
H        4.08410943      -4.26647008       1.53164723
H        2.66172873      -2.86450965       0.13035000
H        4.02867134      -4.09194139       5.25020361
H        9.69036090      -6.26458267       4.11747882
H        8.72706448      -7.71784384       4.46630562
H        8.94629143      -6.46817087       5.69890967
H        7.36158607      -3.77782225       0.84955559
H        8.61872680      -3.97750852      -1.25768984
H       10.04333646      -7.85705766      -0.03476729
H        8.76519538      -7.68010618       2.04978262
C       10.15720421      -6.04657079      -2.00827024
C       10.77085862      -6.14840802      -3.04146598
Br      11.76308591      -6.31307021      -4.71205611
C       -0.00445707       0.01189536      -1.78238275
H       -0.66409135       0.67374010      -2.43557963
H        0.65740317      -0.63156657      -2.45157240
C       -0.90989263      -0.90692880      -0.91072765
C        0.90977584       0.90977584      -0.90977584
C       -0.00465871       1.77757030       0.00794375
H       -0.66225468       2.44313916      -0.64384735
H        0.64322798       2.43503045       0.67728295
C       -1.78241447       0.00034974      -0.00472694
H       -2.45427497      -0.65498947       0.64260836
H       -2.43311707       0.67328779      -0.65473579
C       -0.91132561       0.90220522       0.91563759
C       -0.01476271      -0.02253852       1.78660255
H       -0.67934791      -0.69751639       2.42135241
H        0.63392994       0.61504881       2.47327442
C        0.01484550      -1.77751727      -0.01636693
H        0.67870853      -2.42144646      -0.68295456
H       -0.62264859      -2.45592969       0.64226336
C        1.78714474       0.01002794       0.00389507
H        2.44202412       0.67113390       0.66197326
H        2.45385902      -0.65136977      -0.64189061
C        0.91606151      -0.90478549       0.90901405
