181
Properties=species:S:1:pos:R:3 pbc="F F F"
C        0.00000000       0.00000000       0.00000000
C        0.88068044       0.88068044      -0.88068044
C        0.32001436       1.93600080      -1.58832691
C        1.13214951       2.74174628      -2.39685383
C        2.51189929       2.50120867      -2.52362070
C        3.04791904       1.43111451      -1.79441424
C        2.24273336       0.62761835      -0.97626251
N        3.32033159       3.31335633      -3.36950643
C        2.79963281       4.46039084      -4.07451228
C        3.85317155       4.79742369      -5.10984116
H        3.86853845       5.87977297      -5.28863366
C        5.14727264       4.31759296      -4.47912566
C        4.70705308       3.21185778      -3.54982863
O        5.49843991       2.42575218      -3.05203052
C        3.64731092       4.17944096      -6.47789826
O        4.50006671       4.19425103      -7.35847988
O        2.36445507       3.78852656      -6.68086359
C        1.95955810       3.70430640      -8.05378045
C        1.61302740       5.11841180      -8.51243541
O        0.44617606       5.50452444      -8.53538529
N        2.72802557       5.88054221      -8.81014257
C        2.78526841       7.27809310      -9.01052217
C        1.72705735       8.12608814      -8.67350295
C        1.82272115       9.50610069      -8.88073632
C        2.97194537      10.06494208      -9.44635070
C        3.04965504      11.54328296      -9.68609808
C        4.05259131       9.22941453      -9.74665222
C        3.96161610       7.85050917      -9.52371088
Br       5.47253618       6.78272778      -9.96771771
H       -0.74491581       2.14385415      -1.52332264
H        0.64038501       3.55514762      -2.92092113
H        4.10406809       1.18366526      -1.83496684
H        2.69773045      -0.19138942      -0.42529871
H        2.70540427       5.27851423      -3.34971512
H        1.81718775       4.26407023      -4.50746575
H        5.87463050       3.93363877      -5.19924552
H        5.60719976       5.10773580      -3.87626216
H        1.05936687       3.08318634      -8.10731262
H        2.71955761       3.24363752      -8.69417009
H        3.61738345       5.38836468      -8.91070925
H        0.81337075       7.74645550      -8.22591858
H        0.98271142      10.14003990      -8.60230879
H        3.81891219      11.78346723     -10.42730806
H        3.28402927      12.06586216      -8.75413004
H        2.09669221      11.91673047     -10.07641055
H        4.96255331       9.65349243     -10.16535209
C       -0.88068044      -0.88068044      -0.88068044
C       -1.92966710      -1.59635446      -0.31832050
C       -2.73543065      -2.40484962      -1.13046936
C       -2.50115077      -2.52356709      -2.51201080
C       -1.43737474      -1.78638224      -3.04969081
C       -0.63394289      -0.96823925      -2.24443208
N       -3.31311249      -3.36947043      -3.32061143
C       -4.45402345      -4.08276295      -2.79774953
C       -4.79116439      -5.11451906      -3.85475295
H       -5.87267631      -5.29862857      -3.86564020
C       -4.32092902      -4.47500457      -5.14805768
C       -3.21763723      -3.54240071      -4.70870154
O       -2.43796796      -3.03676752      -5.50148713
C       -4.16538167      -6.48048195      -3.65878653
O       -4.18007439      -7.35688404      -4.51583920
O       -3.76707215      -6.68785863      -2.37891443
C       -3.67402206      -8.06233072      -1.98129217
C       -5.08408835      -8.52974607      -1.63004019
O       -5.46425844      -8.56041116      -0.46141619
N       -5.85028311      -8.82571370      -2.74271355
C       -7.24709054      -9.03277389      -2.79401925
C       -8.09145966      -8.70524310      -1.72994567
C       -9.47088679      -8.91887877      -1.81979259
C      -10.03263882      -9.48156335      -2.96903598
C      -11.51014097      -9.72829169      -3.04060343
C       -9.20103096      -9.77232820      -4.05529889
C       -7.82281234      -9.54296720      -3.97005662
Br      -6.76038907      -9.97414041      -5.48845219
H       -2.13252706      -1.53767284       0.74793892
H       -3.54375886      -2.93540066      -0.63729424
H       -1.19499742      -1.82045890      -4.10724387
H        0.18004151      -0.41094687      -2.70073439
H       -5.27525331      -3.36253132      -2.69584900
H       -4.25065980      -4.51960181      -1.81846212
H       -3.93703825      -5.18958248      -5.88089407
H       -5.11633754      -3.87381416      -5.60104602
H       -3.04816247      -8.11723102      -1.08447235
H       -3.21397693      -8.69663583      -2.74675246
H       -5.36205396      -8.91941016      -3.63499326
H       -7.70950088      -8.26031053      -0.81593342
H      -10.10200281      -8.64778795      -0.97526935
H      -11.75047751     -10.46686386      -3.81234611
H      -12.03850073      -8.79778979      -3.26773094
H      -11.87688995     -10.12518574      -2.08775753
H       -9.62755867     -10.18861711      -4.96522205
C       -0.88068044       0.88068044       0.88068044
C       -0.64544688       0.95128721       2.24760797
C       -1.45725328       1.76045767       3.05303868
C       -2.52344320       2.50102330       2.51226216
C       -2.73284354       2.41117989       1.12942435
C       -1.91826479       1.61141525       0.31693417
N       -3.35614466       3.29940173       3.34764796
C       -3.11462309       3.45791344       4.76199940
C       -4.39444574       4.05028771       5.31570295
H       -4.16567258       4.70698853       6.16428396
C       -4.96863204       4.82881768       4.14654154
C       -4.41703625       4.11754152       2.93416172
O       -4.85595259       4.30971040       1.81055963
C       -5.39775503       3.05137410       5.85552101
O       -6.54860085       3.34843941       6.15575736
O       -4.82965796       1.85518693       6.14900032
C       -5.52867696       1.06716950       7.12179849
C       -5.14399009       1.60051582       8.49936871
O       -4.27009714       1.04999464       9.16599401
N       -5.81993888       2.75766962       8.84110186
C       -5.52817304       3.64123964       9.90447099
C       -4.32611079       3.58581156      10.61472608
C       -4.06990917       4.48182750      11.65782149
C       -5.01834942       5.44047992      12.02440881
C       -4.73982740       6.37755690      13.16165178
C       -6.20588235       5.53154833      11.29122738
C       -6.45407499       4.64468015      10.23708101
Br      -8.09742464       4.82945384       9.29610319
H        0.16250048       0.38323469       2.70152676
H       -1.22251663       1.78138857       4.11254857
H       -3.53160283       2.95557734       0.63552002
H       -2.11257593       1.57074865      -0.75168484
H       -2.28703328       4.16868347       4.87791687
H       -2.83422721       2.51659370       5.23790283
H       -6.06126537       4.83390459       4.11234483
H       -4.59476612       5.85811824       4.13831336
H       -5.18503282       0.03125127       7.03358175
H       -6.61385276       1.07102099       6.97249146
H       -6.63233046       3.00889913       8.27522779
H       -3.55194669       2.86510954      10.36868860
H       -3.12134486       4.41589741      12.18781785
H       -5.66623053       6.81115095      13.55230600
H       -4.08388181       7.18840507      12.83173458
H       -4.25981359       5.84206362      13.98795602
H       -6.94314073       6.28831850      11.54993861
C        0.88068044      -0.88068044       0.88068044
C        1.71097340      -0.30175632       1.83161234
C        2.51900687      -1.11407710       2.63766565
C        2.52268760      -2.51364203       2.50039903
C        1.67161215      -3.06743229       1.53440335
C        0.85367514      -2.26107492       0.73186415
N        3.36864628      -3.32481765       3.30973042
C        4.20072967      -2.77856469       4.35524156
C        5.17838550      -3.88408164       4.69796926
H        5.44223666      -3.83303808       5.76167034
C        4.41625921      -5.15527812       4.37245393
C        3.43625111      -4.72525968       3.30722870
O        2.81903721      -5.53034987       2.62683553
C        6.50368081      -3.83589272       3.96507661
O        7.31651712      -4.75339795       3.98288255
O        6.76958494      -2.60632914       3.45793114
C        8.15760321      -2.32088516       3.23915659
C        8.75337305      -1.90795718       4.58254438
O        8.89436210      -0.72121725       4.87050644
N        9.02756936      -2.98336585       5.40777514
C        9.33517302      -2.95217367       6.78653699
C        9.14751666      -1.80993297       7.56919879
C        9.45765226      -1.81879019       8.93311570
C        9.97918686      -2.96498745       9.53906384
C       10.33090873      -2.95128665      10.99684070
C       10.12967970      -4.12563611       8.77334225
C        9.80367075      -4.12008973       7.41207567
Br      10.04617313      -5.73732228       6.43948627
H        1.74256208       0.77747544       1.95717434
H        3.14218234      -0.60687825       3.36739317
H        1.61318156      -4.13891775       1.37060088
H        0.20605644      -2.72997801      -0.00439470
H        3.55332637      -2.56542774       5.21487952
H        4.68851445      -1.85162588       4.04858340
H        5.04680009      -5.96494905       3.99576565
H        3.84645859      -5.50486353       5.23987560
H        8.22786911      -1.47679090       2.54520583
H        8.70027485      -3.16229268       2.79479769
H        9.02149485      -3.91216466       4.98279787
H        8.74018058      -0.89399861       7.15156565
H        9.29469383      -0.91412259       9.51624369
H       11.02962089      -3.75774738      11.24231922
H        9.42924229      -3.07010190      11.60467728
H       10.82006087      -2.00771175      11.26206061
H       10.51216826      -5.03222368       9.23700589
