189
Properties=species:S:1:pos:R:3 pbc="F F F"
C        0.00000000       0.00000000       0.00000000
C        0.88068044       0.88068044      -0.88068044
C        0.32001436       1.93600080      -1.58832691
C        1.13214951       2.74174628      -2.39685383
C        2.51189929       2.50120867      -2.52362070
C        3.04791904       1.43111451      -1.79441424
C        2.24273336       0.62761835      -0.97626251
N        3.32033159       3.31335633      -3.36950643
C        2.79963281       4.46039084      -4.07451228
C        3.85317155       4.79742369      -5.10984116
H        3.86853845       5.87977297      -5.28863366
C        5.14727264       4.31759296      -4.47912566
C        4.70705308       3.21185778      -3.54982863
O        5.49843991       2.42575218      -3.05203052
C        3.64731092       4.17944096      -6.47789826
O        4.50006671       4.19425103      -7.35847988
O        2.36445507       3.78852656      -6.68086359
C        1.95955810       3.70430640      -8.05378045
C        1.61302740       5.11841180      -8.51243541
O        0.44617606       5.50452444      -8.53538529
N        2.72802557       5.88054221      -8.81014257
C        2.78526841       7.27809310      -9.01052217
C        1.72705735       8.12608814      -8.67350295
C        1.82272115       9.50610069      -8.88073632
C        2.97194537      10.06494208      -9.44635070
C        3.04965504      11.54328296      -9.68609808
C        4.05259131       9.22941453      -9.74665222
C        3.96161610       7.85050917      -9.52371088
H       -0.74491581       2.14385415      -1.52332264
H        0.64038501       3.55514762      -2.92092113
H        4.10406809       1.18366526      -1.83496684
H        2.69773045      -0.19138942      -0.42529871
H        2.70540427       5.27851423      -3.34971512
H        1.81718775       4.26407023      -4.50746575
H        5.87463050       3.93363877      -5.19924552
H        5.60719976       5.10773580      -3.87626216
H        1.05936687       3.08318634      -8.10731262
H        2.71955761       3.24363752      -8.69417009
H        3.61738345       5.38836468      -8.91070925
H        0.81337075       7.74645550      -8.22591858
H        0.98271142      10.14003990      -8.60230879
H        3.81891219      11.78346723     -10.42730806
H        3.28402927      12.06586216      -8.75413004
H        2.09669221      11.91673047     -10.07641055
H        4.96255331       9.65349243     -10.16535209
C        5.10512351       7.04238176      -9.85974792
C        6.06281097       6.36557505     -10.14117893
Br       7.61131058       5.27123585     -10.59622909
C       -0.88068044      -0.88068044      -0.88068044
C       -2.26047926      -0.72405854      -0.85980426
C       -3.06577384      -1.53563221      -1.66934358
C       -2.51095840      -2.52403976      -2.50173050
C       -1.11561042      -2.65504986      -2.50278751
C       -0.30399968      -1.83975980      -1.70285474
N       -3.34428113      -3.35883949      -3.30007373
C       -4.77695852      -3.19382639      -3.36375102
C       -5.29198487      -4.46900461      -3.99944692
H       -6.18990281      -4.25471556      -4.59232671
C       -4.14096140      -4.92732907      -4.87570080
C       -2.92126581      -4.34520475      -4.20226893
O       -1.78819431      -4.70454579      -4.48348251
C       -5.71355624      -5.55760825      -3.03348565
O       -5.96558368      -6.70574973      -3.38146422
O       -5.96652860      -5.07652733      -1.79078928
C       -6.84941091      -5.87587706      -0.99235698
C       -8.27594482      -5.54482248      -1.42310732
O       -8.95669948      -4.74486265      -0.78452366
N       -8.64760733      -6.17360571      -2.59749731
C       -9.77671781      -5.89658358      -3.40058228
C      -10.54910795      -4.74422845      -3.23331202
C      -11.65675053      -4.50073415      -4.05207348
C      -12.02592131      -5.41377842      -5.04353842
C      -13.23110955      -5.15135539      -5.89657115
C      -11.23363556      -6.54826953      -5.24675298
C      -10.11597903      -6.78260426      -4.43725286
H       -2.72447652       0.02191842      -0.21970288
H       -4.13619631      -1.36391327      -1.61634418
H       -0.61086628      -3.39081246      -3.12102146
H        0.77439995      -1.97175928      -1.73428041
H       -4.98173688      -2.33585383      -4.01604291
H       -5.21074702      -2.99600017      -2.38197655
H       -4.04550298      -6.01392505      -4.94808676
H       -4.21546264      -4.49613133      -5.87960376
H       -6.71890099      -5.58659901       0.05563416
H       -6.63957943      -6.94822208      -1.06956372
H       -8.05282396      -6.93519765      -2.92843577
H      -10.30447956      -3.99865064      -2.48261464
H      -12.23455388      -3.59082342      -3.89968282
H      -13.59408894      -6.07351840      -6.36208014
H      -12.98786365      -4.43211574      -6.68404208
H      -14.04966567      -4.75264675      -5.28752082
H      -11.49513658      -7.25578900      -6.03047226
C       -9.34439064      -7.97161046      -4.69125209
C       -8.69818536      -8.96740315      -4.90397645
Br      -7.65332607     -10.57751571      -5.24793374
C       -0.88068044       0.88068044       0.88068044
C       -1.93879714       0.32078925       1.58475567
C       -2.74585852       1.13328904       2.39160206
C       -2.52016146       2.51715127       2.49941594
C       -1.44289031       3.05118221       1.77937527
C       -0.62591560       2.24226151       0.97843711
N       -3.36489411       3.33461313       3.30368711
C       -4.43631297       2.79296064       4.10526232
C       -5.28538612       3.98838996       4.48666032
H       -5.73380973       3.82809083       5.47504452
C       -4.30014974       5.14243898       4.50140255
C       -3.22463159       4.71059281       3.53351509
O       -2.38760906       5.48787014       3.10074342
C       -6.45645013       4.27828892       3.56991109
O       -7.11642167       5.30982427       3.62655168
O       -6.80829006       3.20125642       2.82429874
C       -8.16419686       3.19543050       2.35801759
C       -9.03739941       2.69901116       3.50746404
O       -9.39879892       1.52531161       3.56197526
N       -9.28922423       3.67259945       4.45688668
C       -9.83183066       3.49293014       5.74912288
C       -9.95217367       2.23308069       6.34139406
C      -10.48879699       2.09503439       7.62572677
C      -10.93319092       3.21254428       8.33750295
C      -11.52986110       3.04593573       9.70323926
C      -10.77687978       4.48140668       7.77037160
C      -10.22476917       4.61954311       6.49152387
H       -2.14977488      -0.74327513       1.51576123
H       -3.55347014       0.63992016       2.92306346
H       -1.20029497       4.10867632       1.81372890
H        0.20100716       2.69506530       0.43758161
H       -3.98576081       2.34717165       5.00070117
H       -4.99447554       2.01958908       3.57465911
H       -4.73019259       6.09536213       4.18196007
H       -3.84388010       5.25697493       5.49034269
H       -8.23658354       2.48741570       1.52586659
H       -8.49229808       4.17400470       1.99106244
H       -9.07340716       4.63853909       4.20451113
H       -9.61775055       1.33192203       5.83607225
H      -10.56379593       1.10013771       8.06112647
H      -12.13436667       3.91614932       9.97917149
H      -10.73937880       2.91644980      10.44819286
H      -12.19069941       2.17261127       9.72652256
H      -11.09643658       5.36240503       8.32255623
C      -10.09646275       5.95143452       5.95935591
C       -9.98900613       7.06689358       5.51366525
Br      -9.81525786       8.87049653       4.79302114
C        0.88068044      -0.88068044       0.88068044
C        0.54324436      -2.21159839       1.08949931
C        1.35415789      -3.01671451       1.89987722
C        2.50557650      -2.50596709       2.52518507
C        2.82085338      -1.16043335       2.29216107
C        2.01934478      -0.35254825       1.47472119
N        3.30620020      -3.33005075       3.36694340
C        3.03593200      -4.73427373       3.56433020
C        3.85938194      -5.12718094       4.77387352
H        4.18454113      -6.17093202       4.68147192
C        5.03675085      -4.17054222       4.73669819
C        4.49658516      -2.96218963       4.00996470
O        5.08236839      -1.89033397       4.00352026
C        3.13941706      -5.05982825       6.10540483
O        3.71125053      -5.15605797       7.18548913
O        1.79043859      -5.07817528       5.96523135
C        1.06211673      -5.54807052       7.10745770
C        1.09774359      -7.07373222       7.07239881
O        0.15241554      -7.71518838       6.61848186
N        2.29419305      -7.59885625       7.52566105
C        2.75556260      -8.92758176       7.39073932
C        2.14738527      -9.84708362       6.53217955
C        2.63646925     -11.15276964       6.42031926
C        3.73311223     -11.57157406       7.17855186
C        4.23013515     -12.98206908       7.06683185
C        4.37471549     -10.64604219       8.00790038
C        3.89406267      -9.33509765       8.10667583
H       -0.34610086      -2.63683781       0.63152403
H        1.04474291      -4.04991256       2.02179829
H        3.69510918      -0.69312912       2.73446189
H        2.29981137       0.68571514       1.31754351
H        3.39220679      -5.26730879       2.67411804
H        1.96970414      -4.93330062       3.68571897
H        5.40217596      -3.88012420       5.72521463
H        5.86082169      -4.58438974       4.14598629
H        0.02345073      -5.21497287       7.01144223
H        1.45147276      -5.15360145       8.05229101
H        2.92150378      -6.96777162       8.02718198
H        1.29615990      -9.57389471       5.91569022
H        2.14349528     -11.84328667       5.73827817
H        4.83301126     -13.25873323       7.93794300
H        4.83985598     -13.09809116       6.16607432
H        3.38757621     -13.68063578       7.02162124
H        5.24404217     -10.95128578       8.58606988
C        4.59345871      -8.43114923       8.98264525
C        5.17920290      -7.67409242       9.71626963
Br       6.12630171      -6.44999559      10.90247822
