170
Properties=species:S:1:pos:R:3 pbc="F F F"
C        1.79261456       1.79261456      -1.79261456
C        1.64048421       3.17639238      -1.75216985
C        2.44615585       3.97805225      -2.55701848
C        3.39784145       3.39135104      -3.39591674
C        3.55892783       1.99758624      -3.44410067
C        2.74212363       1.20099086      -2.62932901
C        4.56431812       1.42465845      -4.33147568
C        4.83837350       0.07009280      -4.49754378
N        5.83391492       0.05067695      -5.41741962
C        6.61068758      -0.83978670      -6.12942817
C        7.40503968      -0.08263055      -6.92117083
C        8.37933472      -0.55651314      -7.89069326
C        7.97684072      -0.89153039      -9.18929178
C        8.90912346      -1.36172840     -10.11637064
C       10.24724738      -1.50299846      -9.74852630
C       10.64694151      -1.17093696      -8.45460104
C        9.72193364      -0.69862146      -7.52422006
N        7.14295139       1.28185129      -6.67007945
C        7.54397193       2.43324013      -7.43526281
C        6.13701119       1.34386754      -5.75612533
N        5.38528572       2.21162413      -5.14134681
H        0.90244680       3.63687527      -1.10098500
H        2.33794219       5.05941276      -2.53435955
H        4.02052820       4.03285246      -4.01825622
H        2.83615585       0.11961097      -2.63653786
H        4.42773216      -0.83052032      -4.06850607
H        6.52441174      -1.90749190      -6.03566157
H        6.93524679      -0.78391339      -9.48529854
H        8.59183056      -1.61836859     -11.12412283
H       10.96758336      -1.87148247     -10.47435223
H       10.03910129      -0.44045685      -6.51660146
H        7.40027089       3.36242275      -6.87209225
H        6.96332370       2.50135048      -8.36148963
H        8.60544783       2.37672347      -7.69911354
C       12.02795414      -1.31982149      -8.07481490
C       13.18455222      -1.44451228      -7.75674400
Br      15.05467349      -1.64612674      -7.24245026
C       -1.79261456      -1.79261456      -1.79261456
C       -2.19264650      -3.04453498      -1.33186496
C       -2.99701691      -3.84633800      -2.13787167
C       -3.39589370      -3.39135794      -3.39785759
C       -2.99796510      -2.13113765      -3.87151199
C       -2.18827658      -1.33302062      -3.05114629
C       -3.43680809      -1.69247865      -5.19116551
C       -3.12259983      -0.48168452      -5.80172574
N       -3.75375600      -0.54869737      -6.99955812
C       -3.91616579       0.17724299      -8.16140626
C       -4.69712056      -0.58314253      -8.96331688
C       -5.12411035      -0.27166797     -10.31773653
C       -4.29569530      -0.57337570     -11.40553111
C       -4.69809729      -0.26024057     -12.70542784
C       -5.92859986       0.35949724     -12.92367261
C       -6.75217257       0.66131222     -11.83974525
C       -6.35789903       0.34948136     -10.53911457
N       -5.04826091      -1.76734531      -8.27927590
C       -5.63687089      -2.97159169      -8.80401230
C       -4.42245056      -1.74310526      -7.07144824
N       -4.24784079      -2.47909661      -6.01131926
H       -1.88555920      -3.40201171      -0.35273617
H       -3.31670900      -4.82521518      -1.78979032
H       -4.02579964      -4.03059432      -4.01524291
H       -1.86010437      -0.35203760      -3.38016271
H       -2.53123894       0.37033689      -5.50481587
H       -3.46011107       1.13649666      -8.32896700
H       -3.33441608      -1.05736330     -11.24485255
H       -4.05210390      -0.49865182     -13.54682909
H       -6.23503206       0.60243506     -13.93785612
H       -7.00432336       0.58645720      -9.69737973
H       -6.01090987      -3.62021910      -8.00365692
H       -4.90203869      -3.53694276      -9.38718235
H       -6.48654452      -2.73970799      -9.45503233
C       -8.02098555       1.30370758     -12.06566959
C       -9.08361642       1.84171370     -12.25488122
Br     -10.80180067       2.71162409     -12.56082043
C       -1.79261456       1.79261456       1.79261456
C       -3.05718491       1.34496185       2.16689968
C       -3.85896410       2.15092930       2.97133317
C       -3.39132966       3.39778845       3.39599112
C       -2.11830064       3.85818596       3.02412814
C       -1.32034030       3.03799793       2.21410527
C       -1.66669867       5.16435014       3.48940344
C       -0.44231004       5.76112204       3.20257800
N       -0.50099585       6.95028207       3.85073357
C        0.23965491       8.09844976       4.04153420
C       -0.52042261       8.90004411       4.82311325
C       -0.19527812      10.24306968       5.27516705
C       -0.46814143      11.34754752       4.45891316
C       -0.14177780      12.63640419       4.88558371
C        0.46243939      12.82685480       6.12835982
C        0.73554096      11.72631392       6.93983264
C        0.41034725      10.43658245       6.52129704
N       -1.71988155       8.22885430       5.14614627
C       -2.92494175       8.76292930       5.72460383
C       -1.70418897       7.03026931       4.50254578
N       -2.45318607       5.98413205       4.30093855
H       -3.42453800       0.37605015       1.83971893
H       -4.84765517       1.81298262       3.27107670
H       -4.03075074       4.01531792       4.02556822
H       -0.32969985       3.35697862       1.90562620
H        0.41404553       5.46019777       2.61956567
H        1.20809891       8.25824831       3.60243200
H       -0.93985778      11.20857740       3.48819676
H       -0.35779789      13.49086408       4.24892284
H        0.71581237      13.83255782       6.45370767
H        0.62492076       9.58180436       7.15836229
H       -3.59102854       7.96699815       6.07675919
H       -3.47033496       9.36549348       4.99033537
H       -2.69626632       9.39761343       6.58740509
C        1.36194493      11.92352763       8.22136485
C        1.88655826      12.08869411       9.29464808
Br       2.73481363      12.35575435      11.03005629
C        1.79261456      -1.79261456       1.79261456
C        2.93814875      -1.25583778       2.37505991
C        3.74016486      -2.06208458       3.17897713
C        3.39163034      -3.39829237       3.39518652
C        2.23912797      -3.94889908       2.81258769
C        1.43967983      -3.12748905       2.00527462
C        1.90939694      -5.34693267       3.06412265
C        0.81268407      -6.03729361       2.55603240
N        0.94977194      -7.28551165       3.06672790
C        0.34620116      -8.52547538       3.02865252
C        1.10917472      -9.32921974       3.80518551
C        0.91026993     -10.74746884       4.05577608
C        1.41415729     -11.69939369       3.16105113
C        1.20996885     -13.06115121       3.39264563
C        0.49777543     -13.47751436       4.51748544
C       -0.00529563     -12.52887966       5.40702157
C        0.19670161     -11.16744060       5.18339003
N        2.16762830      -8.57304614       4.35420768
C        3.35765589      -9.03644928       5.01836971
C        2.07116252      -7.31123531       3.85460623
N        2.69731837      -6.16944333       3.87149497
H        3.21257224      -0.21740584       2.21032898
H        4.63652953      -1.65519350       3.63999147
H        4.02935431      -4.01488040       4.02740217
H        0.53994806      -3.51479377       1.53756284
H       -0.00329740      -5.76329081       1.90572451
H       -0.53728309      -8.73662587       2.45323863
H        1.97147579     -11.38384678       2.28130937
H        1.60523314     -13.79636380       2.69598787
H        0.34058090     -14.53897905       4.69089316
H       -0.19722459     -10.43180191       5.88066858
H        3.87129950      -8.22185686       5.54162953
H        4.05608353      -9.47345384       4.29662644
H        3.11585324      -9.79877932       5.76665228
C       -0.74288729     -12.95941946       6.56641538
C       -1.36062031     -13.31999654       7.53740770
Br      -2.35944235     -13.90301919       9.10742016
C       -0.00445707       0.01189536      -1.78238275
H       -0.66409135       0.67374010      -2.43557963
H        0.65740317      -0.63156657      -2.45157240
C       -0.90989263      -0.90692880      -0.91072765
C        0.90977584       0.90977584      -0.90977584
C       -0.00465871       1.77757030       0.00794375
H       -0.66225468       2.44313916      -0.64384735
H        0.64322798       2.43503045       0.67728295
C       -1.78241447       0.00034974      -0.00472694
H       -2.45427497      -0.65498947       0.64260836
H       -2.43311707       0.67328779      -0.65473579
C       -0.91132561       0.90220522       0.91563759
C       -0.01476271      -0.02253852       1.78660255
H       -0.67934791      -0.69751639       2.42135241
H        0.63392994       0.61504881       2.47327442
C        0.01484550      -1.77751727      -0.01636693
H        0.67870853      -2.42144646      -0.68295456
H       -0.62264859      -2.45592969       0.64226336
C        1.78714474       0.01002794       0.00389507
H        2.44202412       0.67113390       0.66197326
H        2.45385902      -0.65136977      -0.64189061
C        0.91606151      -0.90478549       0.90901405
