141
Properties=species:S:1:pos:R:3 pbc="F F F"
C        0.00000000       0.00000000       0.00000000
C        0.88271054       0.88271054      -0.88271054
C        0.73058019       2.26648836      -0.84226582
C        1.53625183       3.06814822      -1.64711446
C        2.48793742       2.48144702      -2.48601272
C        2.64902380       1.08768221      -2.53419665
C        1.83221960       0.29108684      -1.71942498
C        3.65441410       0.51475442      -3.42157166
C        3.92846948      -0.83981122      -3.58763976
N        4.92401089      -0.85922707      -4.50751560
C        5.70078356      -1.74969072      -5.21952415
C        6.49513566      -0.99253457      -6.01126681
C        7.46943070      -1.46641716      -6.98078923
C        7.06693670      -1.80143442      -8.27938776
C        7.99921943      -2.27163242      -9.20646662
C        9.33734336      -2.41290248      -8.83862228
C        9.73703749      -2.08084098      -7.54469702
Br      11.55020255      -2.27631510      -7.04606655
C        8.81202962      -1.60852549      -6.61431603
N        6.23304736       0.37194726      -5.76017543
C        6.63406791       1.52333611      -6.52535879
C        5.22710717       0.43396351      -4.84622131
N        4.47538170       1.30172010      -4.23144279
H       -0.00745722       2.72697125      -0.19108098
H        1.42803816       4.14950873      -1.62445553
H        3.11062417       3.12294843      -3.10835220
H        1.92625183      -0.79029306      -1.72663383
H        3.51782814      -1.74042434      -3.15860204
H        5.61450771      -2.81739593      -5.12575755
H        6.02534277      -1.69381742      -8.57539452
H        7.68192654      -2.52827261     -10.21421881
H       10.05767933      -2.78138649      -9.56444820
H        9.12919726      -1.35036088      -5.60669744
H        6.49036686       2.45251873      -5.96218823
H        6.05341967       1.59144646      -7.45158561
H        7.69554380       1.46681945      -6.78920952
C       -0.88271054      -0.88271054      -0.88271054
C       -1.09804858      -0.52889054      -2.21239524
C       -1.90224228      -1.33499956      -3.01427267
C       -2.48496783      -2.48854517      -2.48188415
C       -2.27421035      -2.85383576      -1.14285655
C       -1.46279022      -2.03447259      -0.34546862
C       -2.89882030      -4.06593842      -0.62598147
C       -2.79340698      -4.55561560       0.67272456
N       -3.54430285      -5.68412398       0.65612741
C       -3.97725853      -6.68933800       1.49597955
C       -4.76280440      -7.48859058       0.73752708
C       -5.48866306      -8.66997835       1.17483864
C       -6.75646730      -8.54415456       1.75573183
C       -7.44758557      -9.67689732       2.19042927
C       -6.87297828     -10.94022096       2.05013609
C       -5.60963588     -11.06452525       1.47326762
Br      -4.83016329     -12.77688372       1.28709300
C       -4.91460941      -9.93801724       1.03480649
N       -4.78525261      -6.99484783      -0.58506961
C       -5.66772683      -7.34944981      -1.66558616
C       -4.04879577      -5.85107960      -0.60741662
N       -3.70324261      -4.88991929      -1.41538269
H       -0.64646695       0.36658242      -2.63071046
H       -2.07771277      -1.07041615      -4.05387351
H       -3.11048313      -3.10847248      -3.12296919
H       -1.27428508      -2.28262794       0.69432042
H       -2.28234470      -4.21221638       1.55855524
H       -3.71846658      -6.74269231       2.53828955
H       -7.21278311      -7.56275111       1.86861435
H       -8.43271320      -9.57395155       2.63879202
H       -7.41537937     -11.81778890       2.39242723
H       -3.92988666     -10.04064451       0.58499735
H       -5.29555686      -6.98111645      -2.62840051
H       -6.66582338      -6.92933067      -1.50129769
H       -5.76314311      -8.43715154      -1.75127812
C       -0.88271054       0.88271054       0.88271054
C       -1.01000082       0.59081521       2.23851833
C       -1.81441719       1.39679347       3.04030385
C       -2.48531990       2.48836822       2.48170903
C       -2.36369832       2.79096103       1.11624331
C       -1.55112744       1.97237980       0.31922418
C       -3.07874253       3.93961846       0.57237919
C       -3.06683558       4.36302404      -0.75356161
N       -3.87588945       5.45072001      -0.75431004
C       -4.40519892       6.38542067      -1.62000261
C       -5.19287840       7.18316802      -0.86217853
C       -6.00313972       8.30030438      -1.31964133
C       -7.29042894       8.07826710      -1.82380601
C       -8.06327854       9.14881983      -2.27804475
C       -7.55147253      10.44572731      -2.23413668
C       -6.26875713      10.66580227      -1.73366588
Br      -5.57461422      12.42349807      -1.67815829
C       -5.49215451       9.60187141      -1.27620576
N       -5.12060450       6.76126268       0.48330287
C       -5.96432554       7.12805990       1.59037737
C       -4.32312306       5.65971654       0.52445239
N       -3.88499531       4.76273146       1.36081782
H       -0.48970848      -0.25631841       2.67720493
H       -1.92168089       1.18022647       4.10009506
H       -3.10973301       3.10915416       3.12303764
H       -1.42998559       2.17322379      -0.74061677
H       -2.58409877       3.99886504      -1.64695796
H       -4.20354801       6.39548009      -2.67615876
H       -7.69813047       7.07005298      -1.86126358
H       -9.06311174       8.97129034      -2.66652935
H       -8.15745718      11.27445798      -2.59117412
H       -4.49263354       9.77914081      -0.88624052
H       -5.52380184       6.83200002       2.54927195
H       -6.94532845       6.64895696       1.50216633
H       -6.11396962       8.21246801       1.62513514
C        0.88271054      -0.88271054       0.88271054
C        1.19014298      -2.17740892       0.47178247
C        1.99473927      -2.97913340       1.27764184
C        2.48633728      -2.48136391       2.48769597
C        2.18215507      -1.17782802       2.91091957
C        1.37126511      -0.38023867       2.09122764
C        2.71605681      -0.69541265       4.17927073
C        2.50035175       0.56139395       4.73734022
N        3.19264342       0.52253328       5.90218928
C        3.45726922       1.29843751       7.01178527
C        4.24046940       0.53909392       7.81249242
C        4.75779370       0.89718404       9.12319311
C        3.97633547       0.69956990      10.26812446
C        4.46620399       1.05781329      11.52566293
C        5.73781571       1.61889197      11.64413942
C        6.51466614       1.81708530      10.50331269
Br       8.23647185       2.58113718      10.66461934
C        6.03293011       1.45965244       9.24454249
N        4.49031700      -0.69711457       7.17773847
C        5.04300089      -1.90291727       7.73684465
C        3.80055087      -0.70172395       6.00501717
N        3.52888005      -1.48162239       4.99804215
H        0.81078820      -2.56828542      -0.46847862
H        2.24268377      -3.99120163       0.96811703
H        3.11505729      -3.12123149       3.10563603
H        1.11391753       0.63339737       2.38207245
H        1.93904952       1.42813865       4.42509497
H        3.06230612       2.28901659       7.14957980
H        2.98349473       0.26192314      10.18534828
H        3.85628144       0.90022231      12.41181360
H        6.11243948       1.89744512      12.62574669
H        6.64318832       1.61577074       8.35811624
H        5.33739053      -2.61250805       6.95517524
H        4.31296616      -2.39513955       8.38834602
H        5.93852926      -1.68464957       8.32839394
