170
Properties=species:S:1:pos:R:3 pbc="F F F"
C        1.79137283       1.79137283      -1.79137283
C        2.70682941       1.20633750      -2.66133363
C        3.51363357       2.01799941      -3.46533278
C        3.41509663       3.41704138      -3.40876827
C        2.48463854       3.98623979      -2.52595054
C        1.67551743       3.17716193      -1.71991823
C        4.27972143       4.22969174      -4.25675541
N        5.19636666       3.66941310      -5.14882927
C        5.77686424       4.70489538      -5.68636668
N        5.27622403       5.89104290      -5.21774627
C        4.31990955       5.62062935      -4.29642904
C        5.88721247       6.96221495      -5.83686548
C        6.77904331       6.42605117      -6.70235207
C        7.65693429       7.14714779      -7.60969630
C        7.22549920       7.47339779      -8.90094093
C        8.06137604       8.18708488      -9.76312228
C        9.32826911       8.57653352      -9.33161446
C        9.76814489       8.25673021      -8.04780930
C        8.93138676       7.54222923      -7.18718609
N        6.73806786       5.01934740      -6.59520141
C        7.33358233       4.02829882      -7.45243160
H        2.80515031       0.12584378      -2.72414700
H        4.22779327       1.54934067      -4.14086255
H        2.37197167       5.06365179      -2.44730487
H        0.96270821       3.63934109      -1.04250032
H        3.77974534       6.39538823      -3.77548554
H        5.63663630       7.98733704      -5.63141904
H        6.23611325       7.17211454      -9.24112072
H        7.71520230       8.43458227     -10.76280611
H       10.75590679       8.55889580      -7.70725591
H        9.27805667       7.29441087      -6.18645565
H        7.30746203       3.03139104      -6.99911057
H        8.38349174       4.26627996      -7.65135445
H        6.80445312       3.98113150      -8.40995245
C       10.18885797       9.31673631     -10.21766561
C       10.90960115       9.93665614     -10.95973345
Br      12.07498190      10.93901408     -12.15959438
C       -1.79137283      -1.79137283      -1.79137283
C       -1.97474482      -3.13245784      -1.46729787
C       -2.78145357      -3.93651840      -2.27899380
C       -3.41071135      -3.41159036      -3.41860456
C       -3.21374237      -2.05674456      -3.72634194
C       -2.40722075      -1.24903938      -2.91633747
C       -4.23739979      -4.28399099      -4.24477780
N       -4.45033659      -5.62892793      -3.93534451
C       -5.20542246      -6.05411115      -4.90859269
N       -5.51178878      -5.06615142      -5.80707301
C       -4.90198173      -3.92184351      -5.41314271
C       -6.34243692      -5.54391128      -6.79994471
C       -6.55171225      -6.84864823      -6.50708606
C       -7.38167071      -7.78683886      -7.24526881
C       -8.73934817      -7.92672167      -6.93376808
C       -9.54067018      -8.81114036      -7.65977265
C       -8.98332846      -9.55359686      -8.69949178
C       -7.63233318      -9.42228518      -9.01806604
C       -6.83219825      -8.53809355      -8.29051028
N       -5.82372095      -7.18361834      -5.34527738
C       -5.90389165      -8.37249180      -4.53792929
H       -1.49812241      -3.56526905      -0.59174963
H       -2.91621034      -4.98491593      -2.01687021
H       -3.67998813      -1.60554664      -4.59739356
H       -2.26748786      -0.20282509      -3.17423666
H       -4.98611998      -2.99913768      -5.96536145
H       -6.71965564      -4.93445500      -7.60128175
H       -9.17859447      -7.34752239      -6.12323164
H      -10.59305244      -8.91080034      -7.40873790
H       -7.19366648      -9.99969273      -9.82869929
H       -5.77864578      -8.43845935      -8.54181805
H       -5.07194959      -8.43774766      -3.82826639
H       -5.86755612      -9.27045449      -5.16311554
H       -6.83922163      -8.38757759      -3.96873784
C       -9.80949348     -10.46180106      -9.45196535
C      -10.50140668     -11.22242208     -10.08216197
Br     -11.62017182     -12.45228193     -11.10113661
C       -1.79137283       1.79137283       1.79137283
C       -1.93802894       3.14300294       1.49346865
C       -2.74490735       3.94695558       2.30510283
C       -3.41086883       3.41141707       3.41862037
C       -3.25055795       2.04608626       3.70018465
C       -2.44398427       1.23845794       2.89015539
C       -4.23654464       4.28380656       4.24581739
N       -4.41299454       5.63962803       3.96198646
C       -5.18019004       6.06019535       4.92774091
N       -5.52815979       5.05990333       5.79695008
C       -4.93489189       3.91112996       5.39094611
C       -6.37016845       5.53428363       6.78184084
C       -6.54421016       6.84947986       6.51375652
C       -7.36974344       7.78962728       7.25440766
C       -8.71671673       7.96666246       6.91645873
C       -9.51453253       8.85268983       7.64436083
C       -8.96448435       9.55953310       8.71239964
C       -7.62416063       9.39105956       9.05746421
C       -6.82749163       8.50531969       8.32799076
N       -5.78322665       7.19342908       5.37596094
C       -5.81924478       8.40119524       4.59387272
H       -1.43255781       3.58410445       0.63847883
H       -2.85076906       5.00359655       2.06363087
H       -3.74595951       1.58647321       4.55049561
H       -2.33300648       0.18398025       3.12756289
H       -5.05156055       2.97866713       5.92039142
H       -6.77849154       4.91602323       7.56087761
H       -9.15028363       7.41533300       6.08373188
H      -10.55859515       8.98136197       7.37263356
H       -7.19121446       9.94060902       9.89023503
H       -5.78226492       8.37664113       8.60001714
H       -4.97039203       8.46333302       3.90423858
H       -5.77726000       9.28421227       5.23965388
H       -6.74104101       8.44968144       4.00481461
C       -9.78720272      10.46931089       9.46674628
C      -10.47622936      11.23124979      10.09851158
Br     -11.59032717      12.46324055      11.12002265
C        1.79137283      -1.79137283       1.79137283
C        2.15105392      -1.35896327       3.06448334
C        2.96044046      -2.16901381       3.86751150
C        3.41751117      -3.41442636       3.40896875
C        3.04194357      -3.83190514       2.12298015
C        2.23201954      -3.02399131       1.31658674
C        4.26687995      -4.22666347       4.27262516
N        4.63111861      -3.82426149       5.55922893
C        5.39519469      -4.79198556       5.98094605
N        5.52440583      -5.79932035       5.06128701
C        4.81837940      -5.46451286       3.95407569
C        6.30738856      -6.82148047       5.55742388
C        6.66579976      -6.43698405       6.80466274
C        7.47654144      -7.18697470       7.75026224
C        6.87490866      -8.07938847       8.64554078
C        7.65756709      -8.81686104       9.53715506
C        9.04289650      -8.66288970       9.53063090
C        9.65248092      -7.77676942       8.64343406
C        8.86831966      -7.03939851       7.75308392
N        6.12553362      -5.15982607       7.06725699
C        6.05121330      -4.44740627       8.31569317
H        1.81268489      -0.39846409       3.44399211
H        3.23722323      -1.81962116       4.86115209
H        3.37062370      -4.78748511       1.72481952
H        1.95448309      -3.36656505       0.32350148
H        4.77073375      -6.09770731       3.08217804
H        6.52761452      -7.71928302       5.00849485
H        5.79326446      -8.20337588       8.65270816
H        7.17907726      -9.50648341      10.22703002
H       10.73311792      -7.65385386       8.63508673
H        9.34740565      -6.34896381       7.06255373
H        5.77102361      -3.39871453       8.16822549
H        7.01957931      -4.45524528       8.82630155
H        5.31014829      -4.90828970       8.97709908
C        9.85117292      -9.42635507      10.44573190
C       10.52810443     -10.06575732      11.21212898
Br      11.62264542     -11.09961668      12.45132825
C       -0.00445707       0.01189536      -1.78238275
H       -0.66409135       0.67374010      -2.43557963
H        0.65740317      -0.63156657      -2.45157240
C       -0.90989263      -0.90692880      -0.91072765
C        0.90977584       0.90977584      -0.90977584
C       -0.00465871       1.77757030       0.00794375
H       -0.66225468       2.44313916      -0.64384735
H        0.64322798       2.43503045       0.67728295
C       -1.78241447       0.00034974      -0.00472694
H       -2.45427497      -0.65498947       0.64260836
H       -2.43311707       0.67328779      -0.65473579
C       -0.91132561       0.90220522       0.91563759
C       -0.01476271      -0.02253852       1.78660255
H       -0.67934791      -0.69751639       2.42135241
H        0.63392994       0.61504881       2.47327442
C        0.01484550      -1.77751727      -0.01636693
H        0.67870853      -2.42144646      -0.68295456
H       -0.62264859      -2.45592969       0.64226336
C        1.78714474       0.01002794       0.00389507
H        2.44202412       0.67113390       0.66197326
H        2.45385902      -0.65136977      -0.64189061
C        0.91606151      -0.90478549       0.90901405
