141
Properties=species:S:1:pos:R:3 pbc="F F F"
C        0.00000000       0.00000000       0.00000000
C        0.88146881       0.88146881      -0.88146881
C        1.79692538       0.29643347      -1.75142960
C        2.60372955       1.10809539      -2.55542876
C        2.50519260       2.50713736      -2.49886424
C        1.57473451       3.07633576      -1.61604651
C        0.76561341       2.26725791      -0.81001420
C        3.36981741       3.31978772      -3.34685139
N        4.28646264       2.75950907      -4.23892524
C        4.86696022       3.79499135      -4.77646266
N        4.36632001       4.98113888      -4.30784224
C        3.41000553       4.71072533      -3.38652502
C        4.97730845       6.05231093      -4.92696146
C        5.86913928       5.51614715      -5.79244804
C        6.74703026       6.23724377      -6.69979228
C        6.31559517       6.56349376      -7.99103690
C        7.15147201       7.27718085      -8.85321826
C        8.41836509       7.66662950      -8.42171043
Br       9.54776100       8.63803644      -9.58452184
C        8.85824086       7.34682619      -7.13790528
C        8.02148273       6.63232521      -6.27728207
N        5.82816383       4.10944338      -5.68529739
C        6.42367830       3.11839479      -6.54252758
H        1.89524628      -0.78406025      -1.81424298
H        3.31788924       0.63943665      -3.23095852
H        1.46206764       4.15374777      -1.53740085
H        0.05280418       2.72943707      -0.13259629
H        2.86984132       5.48548420      -2.86558151
H        4.72673228       7.07743302      -4.72151501
H        5.32620923       6.26221051      -8.33121669
H        6.80529827       7.52467825      -9.85290209
H        9.84600277       7.64899178      -6.79735189
H        8.36815265       6.38450684      -5.27655163
H        6.39755801       2.12148701      -6.08920654
H        7.47358772       3.35637594      -6.74145042
H        5.89454909       3.07122747      -7.50004843
C       -0.88146881      -0.88146881      -0.88146881
C       -1.09226028      -2.21384426      -0.53868392
C       -1.89884402      -3.01798807      -1.35042161
C       -2.50069338      -2.50181672      -2.50868410
C       -2.27634682      -1.15563517      -2.83513481
C       -1.46986231      -0.34787267      -2.02515055
C       -3.32814668      -3.37419651      -3.33411332
N       -3.56832039      -4.71018386      -3.00639271
C       -4.31439529      -5.13906629      -3.98495266
N       -4.58970304      -4.16125405      -4.90434404
C       -3.96753639      -3.02066265      -4.51905683
C       -5.41187047      -4.64179359      -5.90291678
C       -5.64744861      -5.93792568      -5.59236018
C       -6.48069221      -6.87456838      -6.32880572
C       -7.84538968      -6.98715663      -6.03757953
C       -8.64931294      -7.87030653      -6.76225166
C       -8.08748227      -8.63884204      -7.78038071
Br      -9.17505802      -9.82909663      -8.76616463
C       -6.72949188      -8.53483089      -8.07864957
C       -5.92678439      -7.65186300      -7.35244263
N       -4.94411015      -6.26543025      -4.41336420
C       -5.05707655      -7.43931766      -3.58820646
H       -0.63718201      -2.63980870       0.35156170
H       -2.05518125      -4.05957154      -1.07353162
H       -2.72082016      -0.71138348      -3.72101262
H       -1.30865519       0.69151705      -2.29769940
H       -4.02739270      -2.10597426      -5.08754007
H       -5.76585668      -4.03962180      -6.72020183
H       -8.28812753      -6.38754952      -5.24395939
H       -9.70714751      -7.94865338      -6.52707772
H       -6.28730225      -9.13263892      -8.87240527
H       -4.86777590      -7.57356548      -7.58786973
H       -4.23799133      -7.50635531      -2.86390492
H       -5.02543337      -8.34797591      -4.19800480
H       -6.00167013      -7.42975357      -3.03440130
C       -0.88146881       0.88146881       0.88146881
C       -2.22599441       0.56544920       1.05334484
C       -3.03002074       1.37712652       1.86010643
C       -2.50163192       2.50870626       2.50085603
C       -1.14336440       2.80838727       2.31536511
C       -0.33568327       1.99837476       1.50882749
C       -3.37403391       3.33519663       3.32722597
N       -4.72251549       3.03364103       3.52874043
C       -5.14621150       4.00459024       4.28761249
N       -4.15423440       4.89406347       4.60700326
C       -3.00846481       4.49641499       4.00237607
C       -4.63089353       5.88447941       5.44120789
C       -5.93903745       5.59924403       5.63945299
C       -6.87785518       6.33818197       6.46802916
C       -7.02929557       6.01831312       7.82251714
C       -7.91422918       6.74489774       8.62274420
C       -8.64562100       7.79355729       8.06752672
Br      -9.83816612       8.78181934       9.15033382
C       -8.50274895       8.12051276       6.71971062
C       -7.61806132       7.39237042       5.92065826
N       -6.27694544       4.44482988       4.90112927
C       -7.47188025       3.64521533       4.96750509
H       -2.66151046      -0.30377120       0.56768975
H       -4.08110882       1.12135987       1.98581572
H       -0.68942152       3.67305520       2.79073953
H        0.71322707       2.24996664       1.37809797
H       -2.08258238       5.04162684       4.09669781
H       -4.01856255       6.67895158       5.82816618
H       -6.45875503       5.20077142       8.26010998
H       -8.02291425       6.48731621       9.67264815
H       -9.07150120       8.93813486       6.28271038
H       -7.50939203       7.65023321       4.86958588
H       -7.53625081       2.94177049       4.13023026
H       -8.36524090       4.27685123       4.92932195
H       -7.49737505       3.06971202       5.89873793
C        0.88146881      -0.88146881       0.88146881
C        1.21297435      -0.46449947       2.16731464
C        2.02247619      -1.27444385       2.97033366
C        2.50769577      -2.50438081       2.49911763
C        2.16027033      -2.90646925       1.20037721
C        1.35032193      -2.09861371       0.39394988
C        3.35621147      -3.31686619       3.36337885
N        3.69255227      -2.93004639       4.66229829
C        4.46563485      -3.89200886       5.08077052
N        4.62667573      -4.88162259       4.14700281
C        3.93341298      -4.54002726       3.03381563
C        5.41834707      -5.89893661       4.63929717
C        5.74980574      -5.52945693       5.89847180
C        6.55732414      -6.28171181       6.84503036
C        5.95605272      -7.19866565       7.71540747
C        6.73617191      -7.93796648       8.60773272
C        8.11866349      -7.76121839       8.62682314
Br       9.17612872      -8.76550663       9.82868392
C        8.72785680      -6.85056066       7.76455487
C        7.94621615      -6.11140715       6.87346670
N        5.18409662      -4.26588127       6.17292671
C        5.07745704      -3.57568169       7.43146194
H        0.85246816       0.48386513       2.55682598
H        2.27707110      -0.93716990       3.97404341
H        2.51131405      -3.84976394       0.79213827
H        1.09485078      -2.42909223      -0.60910547
H        3.91062681      -5.15929818       2.15098204
H        5.66247489      -6.78373479       4.07947063
H        4.87665308      -7.34047033       7.70251303
H        6.25799717      -8.64674226       9.27813917
H        9.80628672      -6.70982438       7.77623534
H        8.42498408      -5.40179858       6.20242845
H        4.78228330      -2.52941200       7.29655626
H        6.03731850      -3.57615396       7.95794162
H        4.33343329      -4.05961103       8.07278068
