162
Properties=species:S:1:pos:R:3 pbc="F F F"
C        1.79137283       1.79137283      -1.79137283
C        2.70682941       1.20633750      -2.66133363
C        3.51363357       2.01799941      -3.46533278
C        3.41509663       3.41704138      -3.40876827
C        2.48463854       3.98623979      -2.52595054
C        1.67551743       3.17716193      -1.71991823
C        4.27972143       4.22969174      -4.25675541
N        5.19636666       3.66941310      -5.14882927
C        5.77686424       4.70489538      -5.68636668
N        5.27622403       5.89104290      -5.21774627
C        4.31990955       5.62062935      -4.29642904
C        5.88721247       6.96221495      -5.83686548
C        6.77904331       6.42605117      -6.70235207
C        7.65693429       7.14714779      -7.60969630
C        7.22549920       7.47339779      -8.90094093
C        8.06137604       8.18708488      -9.76312228
C        9.32826911       8.57653352      -9.33161446
Br      10.45766502       9.54794047     -10.49442586
C        9.76814489       8.25673021      -8.04780930
C        8.93138676       7.54222923      -7.18718609
N        6.73806786       5.01934740      -6.59520141
C        7.33358233       4.02829882      -7.45243160
H        2.80515031       0.12584378      -2.72414700
H        4.22779327       1.54934067      -4.14086255
H        2.37197167       5.06365179      -2.44730487
H        0.96270821       3.63934109      -1.04250032
H        3.77974534       6.39538823      -3.77548554
H        5.63663630       7.98733704      -5.63141904
H        6.23611325       7.17211454      -9.24112072
H        7.71520230       8.43458227     -10.76280611
H       10.75590679       8.55889580      -7.70725591
H        9.27805667       7.29441087      -6.18645565
H        7.30746203       3.03139104      -6.99911057
H        8.38349174       4.26627996      -7.65135445
H        6.80445312       3.98113150      -8.40995245
C       -1.79137283      -1.79137283      -1.79137283
C       -1.99854950      -3.12493676      -1.45101427
C       -2.80514964      -3.92906946      -2.26274667
C       -3.41061225      -3.41170351      -3.41859052
C       -3.18987502      -2.06433947      -3.74261437
C       -2.38338571      -1.25658453      -2.93262736
C       -4.23796430      -4.28408746      -4.24411683
N       -4.47454783      -5.62129427      -3.91876692
C       -5.22180911      -6.04967686      -4.89664033
N       -5.50121089      -5.07048159      -5.81332072
C       -4.88067404      -3.92938182      -5.42691209
C       -6.32449620      -5.55064234      -6.81115438
C       -6.55660722      -6.84794714      -6.50289218
C       -7.38941868      -7.78479809      -7.23956162
C       -8.75323766      -7.90096291      -6.94563734
C       -9.55681882      -8.78428333      -7.67048104
C       -8.99553373      -9.54940571      -8.69147766
Br     -10.08266809     -10.73987932      -9.67748394
C       -7.63841850      -9.44181725      -8.99244865
C       -6.83604940      -8.55868478      -8.26606791
N       -5.85001801      -7.17647259      -5.32612608
C       -5.95866941      -8.35237798      -4.50326536
H       -1.54063101      -3.55183546      -0.56267462
H       -2.95864177      -4.97158300      -1.98777171
H       -3.63721864      -1.61914011      -4.62656958
H       -2.22500960      -0.21626358      -3.20327643
H       -4.94373094      -3.01360120      -5.99328697
H       -6.68154540      -4.94747597      -7.62637101
H       -9.19555139      -7.30402667      -6.14977044
H      -10.61397131      -8.86542292      -7.43319645
H       -7.19665716     -10.03695531      -9.78844603
H       -5.77772345      -8.47759144      -8.50360830
H       -5.13787824      -8.41920710      -3.78087829
H       -5.92638478      -9.25964867      -5.11509270
H       -6.90208244      -8.34604939      -3.94740524
C       -1.79137283       1.79137283       1.79137283
C       -1.96309649       3.13594320       1.47546084
C       -2.76985879       3.93996908       2.28713791
C       -3.41076070       3.41153522       3.41861036
C       -3.22542192       2.05322320       3.71818374
C       -2.41888408       1.24554239       2.90817113
C       -4.23712643       4.28393721       4.24510495
N       -4.43848949       5.63246493       3.94365461
C       -5.19741176       6.05614149       4.91457306
N       -5.51697517       5.06411209       5.80392594
C       -4.91241663       3.91832351       5.40622781
C       -6.35122695       5.54075689       6.79430908
C       -6.54932583       6.84894516       6.50917555
C       -7.37788366       7.78777111       7.24812361
C       -8.73232839       7.93936515       6.92814437
C       -9.53254092       8.82430551       7.65473676
C       -8.97735256       9.55555016       8.70351437
Br     -10.06014091      10.74810396       9.69178648
C       -7.62957959       9.41252443       9.03058039
C       -6.83054159       8.52783029       8.30243020
N       -5.81086518       7.18689132       5.35486016
C       -5.87705798       8.38190558       4.55534918
H       -1.47732168       3.57149443       0.60632498
H       -2.89544816       4.99109214       2.03145618
H       -3.70091733       1.59924461       4.58276639
H       -2.28827389       0.19659697       3.15967875
H       -5.00687335       2.99239972       5.95134603
H       -6.73831432       4.92838852       7.58868954
H       -9.16989855       7.36893979       6.11051017
H      -10.58241124       8.93311056       7.39706887
H       -7.19260219       9.98116155       9.84829477
H       -5.77950285       8.41904089       8.56037945
H       -5.03971270       8.44626386       3.85198708
H       -5.83885083       9.27520476       5.18707056
H       -6.80823566       8.40753864       3.97976276
C        1.79137283      -1.79137283       1.79137283
C        2.11904786      -1.37655679       3.07889588
C        2.92856527      -2.18648657       3.88191393
C        3.41761160      -3.41426553       3.40902915
C        3.07401222      -3.81420748       2.10860917
C        2.26406062      -3.00635986       1.30217712
C        4.26601077      -4.22678656       4.27337126
N        4.59855955      -3.84213849       5.57391098
C        5.37286447      -4.80330129       5.99196054
N        5.53823195      -5.79044493       5.05633632
C        4.84670498      -5.44790201       3.94236097
C        6.33108430      -6.80708350       5.54812511
C        6.65887936      -6.43969691       6.80887026
C        7.46596083      -7.19226524       7.75555231
C        6.86480177      -8.11252607       8.62251008
C        7.64457686      -8.85207984       9.51492649
C        9.02662044      -8.67226878       9.53752787
Br      10.08364140      -9.67688252      10.73950743
C        9.63569731      -7.75830449       8.67868261
C        8.85439832      -7.01890425       7.78749951
N        6.08971030      -5.17801714       7.08488923
C        5.97868840      -4.49089537       8.34472898
H        1.75553209      -0.42988448       3.46972451
H        3.18014360      -1.85090289       4.88694999
H        3.42809622      -4.75578900       1.69904311
H        2.01158928      -3.33515159       0.29780875
H        4.82729772      -6.06523254       3.05808884
H        6.57846186      -7.69006765       4.98686287
H        5.78575595      -8.25672672       8.60686583
H        7.16649436      -9.56343662      10.18265970
H       10.71377853      -7.61517168       8.69310829
H        9.33307355      -6.30671192       7.11913771
H        5.68146275      -3.44499046       8.21151042
H        6.93736291      -4.49039636       8.87336688
H        5.23431716      -4.97793877       8.98328113
C       -0.00445707       0.01189536      -1.78238275
H       -0.66409135       0.67374010      -2.43557963
H        0.65740317      -0.63156657      -2.45157240
C       -0.90989263      -0.90692880      -0.91072765
C        0.90977584       0.90977584      -0.90977584
C       -0.00465871       1.77757030       0.00794375
H       -0.66225468       2.44313916      -0.64384735
H        0.64322798       2.43503045       0.67728295
C       -1.78241447       0.00034974      -0.00472694
H       -2.45427497      -0.65498947       0.64260836
H       -2.43311707       0.67328779      -0.65473579
C       -0.91132561       0.90220522       0.91563759
C       -0.01476271      -0.02253852       1.78660255
H       -0.67934791      -0.69751639       2.42135241
H        0.63392994       0.61504881       2.47327442
C        0.01484550      -1.77751727      -0.01636693
H        0.67870853      -2.42144646      -0.68295456
H       -0.62264859      -2.45592969       0.64226336
C        1.78714474       0.01002794       0.00389507
H        2.44202412       0.67113390       0.66197326
H        2.45385902      -0.65136977      -0.64189061
C        0.91606151      -0.90478549       0.90901405
