174
Properties=species:S:1:pos:R:3 pbc="F F F"
C        1.79180947       1.79180947      -1.79180947
C        3.16308435       1.55272994      -1.85619269
C        3.96950993       2.35829093      -2.66331774
C        3.41029264       3.41104415      -3.40333464
C        2.02592335       3.63048674      -3.33640009
C        1.21854942       2.82569563      -2.52927727
C        4.27957113       4.26410685      -4.30024428
N        4.17696095       3.77238309      -5.66371669
C        4.96210793       4.35381111      -6.59719825
N        5.74715477       5.38931723      -6.43890544
C        6.37554573       5.56280163      -7.64096807
C        5.97372107       4.62406394      -8.57712090
C        6.40630869       4.45115351      -9.96800744
C        6.71366133       5.57657244     -10.74912897
C        7.14359059       5.44062351     -12.07256686
C        7.26705451       4.17443779     -12.63817402
C        6.97568983       3.05135963     -11.86921646
C        6.56383436       3.18211354     -10.54063031
N        5.01236120       3.89345667      -7.89699444
C        4.12917160       2.89560342      -8.45349640
H        3.61280102       0.74482953      -1.28507857
H        5.03888867       2.16187013      -2.71123701
H        1.57328879       4.43089783      -3.91921706
H        0.14878131       3.01214781      -2.48557434
H        5.31765797       4.22951614      -3.94544455
H        3.94829397       5.30857307      -4.23834379
H        3.99653395       2.77704868      -5.72374031
H        7.10395310       6.35259054      -7.77289611
H        6.61669186       6.57830897     -10.33476598
H        7.37952258       6.32463756     -12.65965495
H        7.59437761       4.07434124     -13.66953867
H        6.38318253       2.28675523      -9.95378063
H        3.18210920       2.89079920      -7.90824321
H        4.61515038       1.92117545      -8.36610436
H        3.91574653       3.13422210      -9.49781142
C        7.09930684       1.73897272     -12.44883652
C        7.20283609       0.63984867     -12.93426831
Br       7.37023413      -1.13734195     -13.71917048
C       -1.79180947      -1.79180947      -1.79180947
C       -1.32352561      -3.03443928      -2.21404210
C       -2.13012942      -3.84145017      -3.01953901
C       -3.40485384      -3.40681821      -3.41299937
C       -3.86576065      -2.15797508      -2.96907444
C       -3.05980194      -1.34994581      -2.16377457
C       -4.28955100      -4.29385212      -4.26051913
N       -5.22514482      -4.99234968      -3.39556624
C       -6.03857803      -5.90771375      -3.96682550
N       -6.15564112      -6.17726788      -5.24246843
C       -7.04892999      -7.20966208      -5.32072336
C       -7.50968530      -7.59332812      -4.07189250
C       -8.45688940      -8.65460022      -3.71398002
C       -9.54053117      -8.93850468      -4.56032689
C      -10.44966845      -9.95500743      -4.25210508
C      -10.29202880     -10.70066283      -3.08697468
C       -9.21481934     -10.43504279      -2.24640379
C       -8.29356538      -9.43272893      -2.56028390
N       -6.89010998      -6.69428694      -3.21841539
C       -7.15134156      -6.51778141      -1.80914845
H       -0.33645596      -3.38359399      -1.92265917
H       -1.75837725      -4.81242100      -3.34119756
H       -4.85994337      -1.81409834      -3.24936197
H       -3.43052335      -0.38360214      -1.83237798
H       -3.66763541      -5.00229227      -4.82269099
H       -4.82494119      -3.67684685      -4.99342278
H       -4.86420880      -5.16799022      -2.46512392
H       -7.30967183      -7.64113223      -6.27863569
H       -9.69258962      -8.36463806      -5.47253913
H      -11.28047469     -10.16107559      -4.92226481
H      -11.00556838     -11.48465389      -2.84803524
H       -7.44112303      -9.27616445      -1.90643093
H       -6.97869211      -5.47651284      -1.52594665
H       -6.47815767      -7.17283886      -1.25143366
H       -8.19560636      -6.75653976      -1.59563393
C       -9.04721659     -11.20119057      -1.03870892
C       -8.90684928     -11.84283933      -0.02726447
Br      -8.67988722     -12.88033112       1.60815567
C       -1.79180947       1.79180947       1.79180947
C       -1.38440483       3.08844206       2.09916009
C       -2.19110859       3.89537439       2.90463563
C       -3.40446217       3.40737391       3.41283533
C       -3.80549802       2.10353057       3.08378158
C       -2.99935311       1.29555631       2.27861290
C       -4.29173033       4.29182052       4.26037141
N       -5.32756352       4.86659204       3.41890517
C       -6.16375403       5.76471121       3.98465205
N       -6.21631218       6.11387841       5.24518685
C       -7.17205528       7.08915512       5.31810502
C       -7.73824594       7.35467771       4.08198226
C       -8.77792551       8.32497771       3.72256642
C       -9.82151390       8.59604332       4.62180553
C      -10.81697555       9.52768666       4.31211875
C      -10.78722695      10.19943775       3.09300162
C       -9.75093487       9.94655760       2.19877346
C       -8.74402798       9.03021644       2.51233378
N       -7.11445733       6.44068564       3.24766933
C       -7.45359498       6.15037290       1.87430354
H       -0.44486938       3.47978633       1.71805340
H       -1.86748851       4.90834772       3.13615957
H       -4.75319922       1.71621052       3.45399394
H       -3.32289878       0.28658110       2.03702358
H       -3.68529461       5.07632772       4.73099634
H       -4.73444957       3.69370395       5.06705731
H       -5.04072065       5.00033939       2.45626290
H       -7.39945477       7.56817584       6.26180913
H       -9.87400183       8.07813790       5.57762708
H      -11.61489090       9.72543894       5.02348525
H      -11.56736860      10.91709475       2.85379417
H       -7.92694858       8.88427671       1.81249312
H       -7.22790524       5.10536076       1.64788560
H       -6.86498914       6.80744112       1.22999993
H       -8.52353227       6.30558876       1.71865902
C       -9.71544654      10.63640407       0.93526547
C       -9.68572506      11.21415048      -0.12292246
Br      -9.63766794      12.14831758      -1.83392286
C        1.79180947      -1.79180947       1.79180947
C        3.12890885      -1.98986905       1.45322909
C        3.93575847      -2.79533545       2.26002468
C        3.40791907      -3.41261876       3.40413359
C        2.06259184      -3.19297252       3.73724582
C        1.25469018      -2.38791390       2.93091825
C        4.28973298      -4.26049654       4.29369274
N        4.74147906      -3.45562265       5.41595902
C        5.62134001      -4.01863362       6.27314365
N        6.04967007      -5.25562677       6.27008059
C        6.96610691      -5.33100744       7.28220108
C        7.11292613      -4.12115778       7.94082201
C        7.99039544      -3.77190421       9.06316999
C        8.25507476      -4.71994102      10.06434696
C        9.10011708      -4.41967783      11.13698605
C        9.68978197      -3.16175521      11.22812914
C        9.44309059      -2.21805952      10.23511581
C        8.61425850      -2.52046368       9.15185602
N        6.18613220      -3.30582776       7.31085234
C        5.78446453      -1.97887252       7.71493437
H        3.55187121      -1.52340354       0.56743437
H        4.98010745      -2.94115781       1.99073055
H        1.64240238      -3.64888155       4.63211975
H        0.21365738      -2.23181374       3.20103234
H        5.14012654      -4.63985290       3.71263922
H        3.72018104      -5.13059999       4.64442979
H        4.82849329      -2.46955869       5.19927096
H        7.49175372      -6.25602672       7.48165931
H        7.79967115      -5.70758136      10.02251430
H        9.29461142      -5.16884792      11.90035575
H       10.33985441      -2.93069643      12.06770668
H        8.47332339      -1.77826340       8.37213161
H        4.74282028      -1.80357313       7.43475819
H        6.43263153      -1.25708660       7.21271206
H        5.86192314      -1.88540557       8.80045133
C       10.04817896      -0.91442019      10.32451692
C       10.55494047       0.17737775      10.39939036
Br      11.37433097       1.94272267      10.52045436
C       -0.00445707       0.01189536      -1.78238275
H       -0.66409135       0.67374010      -2.43557963
H        0.65740317      -0.63156657      -2.45157240
C       -0.90989263      -0.90692880      -0.91072765
C        0.90977584       0.90977584      -0.90977584
C       -0.00465871       1.77757030       0.00794375
H       -0.66225468       2.44313916      -0.64384735
H        0.64322798       2.43503045       0.67728295
C       -1.78241447       0.00034974      -0.00472694
H       -2.45427497      -0.65498947       0.64260836
H       -2.43311707       0.67328779      -0.65473579
C       -0.91132561       0.90220522       0.91563759
C       -0.01476271      -0.02253852       1.78660255
H       -0.67934791      -0.69751639       2.42135241
H        0.63392994       0.61504881       2.47327442
C        0.01484550      -1.77751727      -0.01636693
H        0.67870853      -2.42144646      -0.68295456
H       -0.62264859      -2.45592969       0.64226336
C        1.78714474       0.01002794       0.00389507
H        2.44202412       0.67113390       0.66197326
H        2.45385902      -0.65136977      -0.64189061
C        0.91606151      -0.90478549       0.90901405
