145
Properties=species:S:1:pos:R:3 pbc="F F F"
C        0.00000000       0.00000000       0.00000000
C        0.88131013       0.88131013      -0.88131013
C        2.23971679       1.00364773      -0.59713686
C        3.04574224       1.81251649      -1.40193087
C        2.49594447       2.50837146      -2.48933146
C        1.12975202       2.36373971      -2.77106673
C        0.32223096       1.55506657      -1.96595684
C        3.37312218       3.37158249      -3.36698348
N        3.80186334       2.60297733      -4.52433709
C        4.70863946       3.17425267      -5.34663440
N        5.14149842       4.41003988      -5.29910094
C        6.07332187       4.51473442      -6.29345648
C        6.22811378       3.32490887      -6.98252335
C        7.11351363       3.01306384      -8.10614259
C        7.84632306       1.81962822      -8.15596973
C        8.70172057       1.55069513      -9.23023584
C        8.84292270       2.48488451     -10.25364585
Br      10.00710348       2.12746979     -11.69775991
C        8.13736279       3.68367480     -10.21283426
C        7.27539177       3.94404174      -9.14262124
N        5.30390226       2.48593170      -6.38345594
C        4.95381363       1.15028903      -6.80734477
H        2.67960750       0.47801264       0.24568883
H        4.10635333       1.90169258      -1.17396634
H        0.68940526       2.88226811      -3.62074458
H       -0.73709330       1.45902402      -2.19311844
H        4.23549361       3.72058384      -2.78522261
H        2.81252049       4.26082924      -3.68050638
H        3.80934632       1.60058690      -4.37706709
H        6.60117522       5.44505399      -6.46171601
H        7.77876602       1.09233178      -7.35006271
H        9.25856039       0.61704820      -9.25146066
H        8.24903132       4.42166936     -11.00262134
H        6.72987838       4.88478411      -9.12844051
H        3.90853864       0.94445950      -6.56347042
H        5.60690413       0.44468345      -6.28772630
H        5.07341332       1.06409131      -7.88966162
C       -0.88131013      -0.88131013      -0.88131013
C       -2.01129382      -1.48989046      -0.33931711
C       -2.81626142      -2.29881891      -1.14510928
C       -2.49093202      -2.50892179      -2.49379358
C       -1.35826462      -1.87796284      -3.02833101
C       -0.55177652      -1.06881581      -2.22266205
C       -3.37154423      -3.37315065      -3.36699327
N       -4.31213744      -2.53001476      -4.08702557
C       -5.27111622      -3.14828655      -4.81012376
N       -5.36332632      -4.43212309      -5.05518983
C       -6.50943118      -4.58899501      -5.78308658
C       -7.14929186      -3.38225044      -6.00400371
C       -8.39153815      -3.11119405      -6.72998786
C       -9.36150308      -2.23413796      -6.22627998
C      -10.55048397      -2.00464831      -6.92751926
C      -10.78400554      -2.66724301      -8.13020452
Br     -12.39449461      -2.36703456      -9.07080402
C       -9.84067663      -3.55571239      -8.63748283
C       -8.64894923      -3.77429791      -7.93880761
N       -6.30779262      -2.45991567      -5.40558160
C       -6.43408502      -1.02194766      -5.45541476
H       -2.27286662      -1.34399097       0.70492627
H       -3.69809256      -2.76958636      -0.71433333
H       -1.10010948      -2.01557472      -4.07673375
H        0.32751080      -0.59233264      -2.65022731
H       -3.89824939      -4.10328618      -2.73976450
H       -2.74623083      -3.93958860      -4.06803668
H       -4.50820869      -1.64567853      -3.63311308
H       -6.82899052      -5.57133740      -6.10761731
H       -9.21575445      -1.73382991      -5.27157616
H      -11.28857369      -1.31748770      -6.52100785
H      -10.01935943      -4.08358528      -9.57037732
H       -7.92182759      -4.46990318      -8.35137223
H       -5.44466572      -0.55977049      -5.41203235
H       -7.03608723      -0.70199934      -4.60122731
H       -6.90633592      -0.72598529      -6.39484504
C       -0.88131013       0.88131013       0.88131013
C       -0.48953371       1.16261101       2.18835666
C       -1.29751333       1.96677364       2.99590264
C       -2.50397635       2.48673641       2.50293463
C       -2.87760861       2.20634425       1.18060559
C       -2.07008651       1.40123470       0.37193316
C       -3.36924964       3.36823468       3.37420384
N       -3.06193133       4.76340490       3.10384155
C       -3.64309828       5.69090467       3.89552359
N       -4.57294540       5.48279717       4.79489667
C       -4.81401300       6.70033197       5.36716779
C       -4.02478574       7.69440605       4.81635422
C       -3.97141856       9.12133555       5.13996596
C       -2.75291290       9.80162144       5.26738668
C       -2.72471323      11.16137275       5.59656556
C       -3.91777574      11.84493269       5.81874464
Br      -3.87942600      13.67757748       6.27532971
C       -5.13702107      11.18222752       5.71462326
C       -5.16131531       9.82566726       5.37507218
N       -3.30887926       7.02803647       3.83637417
C       -2.42498568       7.62439463       2.86206712
H        0.43754632       0.76144575       2.58803188
H       -0.98361101       2.18290653       4.01549471
H       -3.80149277       2.61524690       0.77567828
H       -2.37734754       1.18686041      -0.64915879
H       -3.18964156       3.12313143       4.42852707
H       -4.42626272       3.15911548       3.16847790
H       -2.13047536       4.91950070       2.73702424
H       -5.54185336       6.80397685       6.16211501
H       -1.80843040       9.27904403       5.13368609
H       -1.76871578      11.67138664       5.68696682
H       -6.07175818      11.70608585       5.89547799
H       -6.12320259       9.32445399       5.29544642
H       -2.43840521       7.03846213       1.93960122
H       -1.41595924       7.64179664       3.28155800
H       -2.76440353       8.63568949       2.62707323
C        0.88131013      -0.88131013       0.88131013
C        0.41928329      -1.29105725       2.13016084
C        1.22699707      -2.09520769       2.93798483
C        2.50270946      -2.48675276       2.50418518
C        2.94786877      -2.07802944       1.23866024
C        2.14061753      -1.27281671       0.42982014
C        3.36881295      -3.36862609       3.37424911
N        3.19136259      -4.75705030       2.98076488
C        3.78429263      -5.69898076       3.74625314
N        4.62775190      -5.49493297       4.72795437
C        4.92092431      -6.73273215       5.22785629
C        4.25331170      -7.73528660       4.54694771
C        4.28796685      -9.18319623       4.76155698
C        3.12010845      -9.95752781       4.74428475
C        3.17415722     -11.33725536       4.97123896
C        4.39764978     -11.94811342       5.23568987
Br       4.46922163     -13.80871268       5.55439888
C        5.56593017     -11.19302361       5.27491807
C        5.50899530      -9.81594357       5.03711588
N        3.56032667      -7.04807931       3.56488391
C        2.79819585      -7.62903210       2.48421949
H       -0.56264168      -0.99020515       2.48436783
H        0.85808405      -2.41215509       3.91177311
H        3.92759745      -2.38639705       0.87842344
H        2.50317200      -0.95798068      -0.54610352
H        3.09502113      -3.21995264       4.42632629
H        4.41842449      -3.06836123       3.26707039
H        2.30380609      -4.95095515       2.53223906
H        5.59532720      -6.84512933       6.06748869
H        2.14993529      -9.49568375       4.57554147
H        2.25674052     -11.92044339       4.94988533
H        6.52310841     -11.66051580       5.48969782
H        6.43217572      -9.24192004       5.06900724
H        2.83252406      -6.97363012       1.61031438
H        1.76594184      -7.75184023       2.82153181
H        3.23138856      -8.59181226       2.20396544
