166
Properties=species:S:1:pos:R:3 pbc="F F F"
C        1.79121416       1.79121416      -1.79121416
C        3.14962082       1.91355176      -1.50704089
C        3.95564626       2.72242052      -2.31183490
C        3.40584849       3.41827548      -3.39923549
C        2.03965604       3.27364374      -3.68097075
C        1.23213499       2.46497060      -2.87586086
C        4.28302620       4.28148652      -4.27688751
N        4.71176737       3.51288136      -5.43424111
C        5.61854349       4.08415669      -6.25653842
N        6.05140244       5.31994390      -6.20900496
C        6.98322589       5.42463844      -7.20336050
C        7.13801781       4.23481290      -7.89242738
C        8.02341766       3.92296787      -9.01604662
C        8.75622708       2.72953225      -9.06587375
C        9.61162459       2.46059915     -10.14013987
C        9.75282673       3.39478853     -11.16354988
Br      10.91700751       3.03737382     -12.60766394
C        9.04726681       4.59357883     -11.12273829
C        8.18529579       4.85394577     -10.05252527
N        6.21380629       3.39583572      -7.29335996
C        5.86371766       2.06019305      -7.71724879
H        3.58951152       1.38791667      -0.66421519
H        5.01625735       2.81159661      -2.08387036
H        1.59930928       3.79217213      -4.53064861
H        0.17281073       2.36892804      -3.10302246
H        5.14539764       4.63048786      -3.69512664
H        3.72242451       5.17073327      -4.59041040
H        4.71925035       2.51049092      -5.28697111
H        7.51107924       6.35495802      -7.37162004
H        8.68867005       2.00223581      -8.25996674
H       10.16846441       1.52695222     -10.16136469
H        9.15893535       5.33157338     -11.91252537
H        7.63978241       5.79468813     -10.03834453
H        4.81844266       1.85436353      -7.47337444
H        6.51680815       1.35458747      -7.19763032
H        5.98331735       1.97399533      -8.79956565
C       -1.79121416      -1.79121416      -1.79121416
C       -1.24021538      -2.89993509      -2.43006299
C       -2.04607989      -3.70484650      -3.23897528
C       -3.40402642      -3.40056467      -3.41876837
C       -3.94721015      -2.28942707      -2.75763331
C       -3.14149218      -1.48300185      -1.94847242
C       -4.27692825      -4.28133591      -4.28313607
N       -4.96433659      -5.24999412      -3.44455913
C       -5.68126729      -6.21078197      -4.06718934
N       -5.94812608      -6.28434414      -5.34788108
C       -6.65802767      -7.44058969      -5.51260747
C       -6.84523378      -8.10601071      -4.31401359
C       -7.54364864      -9.36603382      -4.05274967
C       -7.00657024     -10.34223279      -3.20283006
C       -7.68196915     -11.54780627      -2.98258819
C       -8.89219967     -11.79136963      -3.62759584
Br      -9.79799613     -13.42397274      -3.34007639
C       -9.43257708     -10.84165789      -4.48934896
C       -8.75959094      -9.63358209      -4.69859380
N       -6.24524968      -7.27042229      -3.38733000
C       -6.26643430      -7.42347060      -1.95125460
H       -0.18893382      -3.14490625      -2.30780332
H       -1.60820216      -4.57001618      -3.73350599
H       -5.00243628      -2.04809787      -2.87159587
H       -3.57600973      -0.62041920      -1.44833230
H       -3.65380934      -4.78322697      -5.03397582
H       -4.99937933      -3.65888326      -4.82530558
H       -4.49083417      -5.45359867      -2.57227954
H       -6.99470595      -7.74830974      -6.49464161
H       -6.04563416     -10.18803780      -2.71720063
H       -7.24970990     -12.29057002      -2.31650139
H      -10.37162347     -11.02788021      -5.00353041
H       -9.19785877      -8.90174175      -5.37321456
H       -6.23240428      -6.44190208      -1.47187428
H       -5.39582762      -8.01537561      -1.65782272
H       -7.19162861      -7.91811338      -1.64713634
C       -1.79121416       1.79121416       1.79121416
C       -1.20308727       2.71908151       2.64804467
C       -2.00951283       3.52362638       3.45676246
C       -3.40659541       3.39877041       3.41799365
C       -3.98413327       2.47021053       2.53992674
C       -3.17800642       1.66423251       1.73072752
C       -4.27727056       4.28047135       4.28365831
N       -4.70847313       5.43629233       3.51412439
C       -5.38101803       6.40443750       4.17378308
N       -5.81890656       6.35377229       5.40767246
C       -6.39367078       7.57045653       5.64709752
C       -6.32011767       8.40170614       4.54343427
C       -6.80890161       9.77228469       4.38124583
C       -6.03578085      10.75980364       3.75604859
C       -6.51477551      12.06844308       3.62914502
C       -7.76511463      12.40123100       4.14481951
Br      -8.40665505      14.17077554       3.98461468
C       -8.53984551      11.43869237       4.78504604
C       -8.06194346      10.12933260       4.90049077
N       -5.70257757       7.61168480       3.58873960
C       -5.49633204       7.94600740       2.19882006
H       -0.12277116       2.82283721       2.69603502
H       -1.54223381       4.24702737       4.12246315
H       -5.06666123       2.37164578       2.48382301
H       -3.64085009       0.94359161       1.06031953
H       -3.71107060       4.58823359       5.17170795
H       -5.14320171       3.70574047       4.63462599
H       -4.09191753       5.67759005       2.74720480
H       -6.82735633       7.79735118       6.61294979
H       -5.04189176      10.53069228       3.37828855
H       -5.90054950      12.81885100       3.13738082
H       -9.51234414      11.69246966       5.19822030
H       -8.68192373       9.38943836       5.40145298
H       -5.51733957       7.03819496       1.59064609
H       -4.52483189       8.43796659       2.10622746
H       -6.29797755       8.60363737       1.85526340
C        1.79121416      -1.79121416       1.79121416
C        3.17026947      -1.80614586       1.59379813
C        3.97656950      -2.61491737       2.39841481
C        3.40712773      -3.41776583       3.39846591
C        2.01894568      -3.38097192       3.59435293
C        1.21119043      -2.57246961       2.78930641
C        4.28331504      -4.28107145       4.27701374
N        4.58292191      -3.56785679       5.50811114
C        5.47207075      -4.13481507       6.35235279
N        5.99099818      -5.33402207       6.25533105
C        6.86195419      -5.44668535       7.30258530
C        6.88998408      -4.29954743       8.07572657
C        7.67778405      -4.00938852       9.27525958
C        8.32211477      -2.77756179       9.45195653
C        9.08616773      -2.52866125      10.59753463
C        9.22515335      -3.51996388      11.56604791
Br      10.26676035      -3.18854177      13.10674315
C        8.60773961      -4.75598927      11.39985505
C        7.83629299      -4.99706285      10.25841099
N        5.95072702      -3.48253859       7.46973636
C        5.48314372      -2.20446430       7.95355149
H        3.62626715      -1.19663698       0.81873926
H        5.05325812      -2.61984319       2.23862300
H        1.56156501      -3.98390590       4.37665910
H        0.13536262      -2.56056987       2.94882874
H        5.20324684      -4.53309836       3.73466693
H        3.76616152      -5.22396058       4.49344608
H        4.53094700      -2.55931250       5.42645288
H        7.44058673      -6.35050437       7.44656619
H        8.25668352      -2.00244782       8.69174125
H        9.57500355      -1.56481752      10.71696025
H        8.71885819      -5.53781003      12.14636587
H        7.35876813      -5.96772647      10.14632047
H        4.44404030      -2.04998808       7.65215224
H        6.11824683      -1.42429055       7.52648856
H        5.52670606      -2.18534597       9.04482630
C       -0.00445707       0.01189536      -1.78238275
H       -0.66409135       0.67374010      -2.43557963
H        0.65740317      -0.63156657      -2.45157240
C       -0.90989263      -0.90692880      -0.91072765
C        0.90977584       0.90977584      -0.90977584
C       -0.00465871       1.77757030       0.00794375
H       -0.66225468       2.44313916      -0.64384735
H        0.64322798       2.43503045       0.67728295
C       -1.78241447       0.00034974      -0.00472694
H       -2.45427497      -0.65498947       0.64260836
H       -2.43311707       0.67328779      -0.65473579
C       -0.91132561       0.90220522       0.91563759
C       -0.01476271      -0.02253852       1.78660255
H       -0.67934791      -0.69751639       2.42135241
H        0.63392994       0.61504881       2.47327442
C        0.01484550      -1.77751727      -0.01636693
H        0.67870853      -2.42144646      -0.68295456
H       -0.62264859      -2.45592969       0.64226336
C        1.78714474       0.01002794       0.00389507
H        2.44202412       0.67113390       0.66197326
H        2.45385902      -0.65136977      -0.64189061
C        0.91606151      -0.90478549       0.90901405
