174
Properties=species:S:1:pos:R:3 pbc="F F F"
C        1.79121416       1.79121416      -1.79121416
C        3.14962082       1.91355176      -1.50704089
C        3.95564626       2.72242052      -2.31183490
C        3.40584849       3.41827548      -3.39923549
C        2.03965604       3.27364374      -3.68097075
C        1.23213499       2.46497060      -2.87586086
C        4.28302620       4.28148652      -4.27688751
N        4.71176737       3.51288136      -5.43424111
C        5.61854349       4.08415669      -6.25653842
N        6.05140244       5.31994390      -6.20900496
C        6.98322589       5.42463844      -7.20336050
C        7.13801781       4.23481290      -7.89242738
C        8.02341766       3.92296787      -9.01604662
C        8.75622708       2.72953225      -9.06587375
C        9.61162459       2.46059915     -10.14013987
C        9.75282673       3.39478853     -11.16354988
C        9.04726681       4.59357883     -11.12273829
C        8.18529579       4.85394577     -10.05252527
N        6.21380629       3.39583572      -7.29335996
C        5.86371766       2.06019305      -7.71724879
H        3.58951152       1.38791667      -0.66421519
H        5.01625735       2.81159661      -2.08387036
H        1.59930928       3.79217213      -4.53064861
H        0.17281073       2.36892804      -3.10302246
H        5.14539764       4.63048786      -3.69512664
H        3.72242451       5.17073327      -4.59041040
H        4.71925035       2.51049092      -5.28697111
H        7.51107924       6.35495802      -7.37162004
H        8.68867005       2.00223581      -8.25996674
H       10.16846441       1.52695222     -10.16136469
H        9.15893535       5.33157338     -11.91252537
H        7.63978241       5.79468813     -10.03834453
H        4.81844266       1.85436353      -7.47337444
H        6.51680815       1.35458747      -7.19763032
H        5.98331735       1.97399533      -8.79956565
C       10.64026548       3.12233629     -12.26437786
C       11.38349543       2.89415753     -13.18632129
Br      12.58523540       2.52521178     -14.67702584
C       -1.79121416      -1.79121416      -1.79121416
C       -1.25268531      -2.92866272      -2.38886542
C       -2.05845168      -3.73365090      -3.19779910
C       -3.40358042      -3.40093526      -3.41884379
C       -3.93478202      -2.26070502      -2.79878348
C       -3.12913033      -1.45419418      -1.98964194
C       -4.27688704      -4.28148839      -4.28302480
N       -5.00853597      -5.21183359      -3.43852028
C       -5.73386128      -6.17011572      -4.05526160
N       -5.97116659      -6.26913618      -5.34004854
C       -6.70551838      -7.41148306      -5.49422340
C       -6.93846975      -8.04197483      -4.28481350
C       -7.67432339      -9.27766860      -4.01044015
C       -7.18269740     -10.24512532      -3.12381036
C       -7.89318786     -11.42798923      -2.89118652
C       -9.09303971     -11.65801457      -3.56011086
C       -9.58833617     -10.71724426      -4.45800350
C       -8.88046263      -9.53154585      -4.67975835
N       -6.34056330      -7.19836435      -3.36407431
C       -6.40057879      -7.31490854      -1.92567217
H       -0.21114913      -3.19606393      -2.23443032
H       -1.63040659      -4.62133112      -3.65998662
H       -4.98055371      -1.99663998      -2.94493633
H       -3.55401874      -0.56904113      -1.52170136
H       -3.64838367      -4.81703497      -5.00559350
H       -4.97011885      -3.65534987      -4.85809946
H       -4.56168170      -5.40505791      -2.54997277
H       -7.02573598      -7.73535121      -6.47657010
H       -6.23033529     -10.10231846      -2.61821885
H       -7.49599975     -12.16419194      -2.19658963
H      -10.51892623     -10.89330635      -4.99080152
H       -9.28372059      -8.80632667      -5.38276781
H       -6.35372515      -6.32278650      -1.46966898
H       -5.55245280      -7.92034790      -1.59622524
H       -7.34498815      -7.77908765      -1.63280253
C       -9.81954519     -12.87945090      -3.32798354
C      -10.42799352     -13.90240382      -3.13357691
Br     -11.41180302     -15.55643219      -2.81923783
C       -1.79121416       1.79121416       1.79121416
C       -1.20396314       2.73369865       2.63255167
C       -2.01034627       3.53826716       3.44128825
C       -3.40640004       3.39888776       3.41807166
C       -3.98327098       2.45560085       2.55539870
C       -3.17717675       1.64959140       1.74619829
C       -4.27723864       4.28053633       4.28362526
N       -4.72800282       5.42400532       3.50688170
C       -5.40370052       6.39198815       4.16354993
N       -5.82853744       6.34951225       5.40230162
C       -6.41325900       7.56270137       5.63526447
C       -6.35938289       8.38332492       4.52255027
C       -6.86377131       9.74715631       4.35150451
C       -6.10715516      10.73600550       3.70847243
C       -6.60076489      12.03836404       3.57323468
C       -7.84915804      12.36373530       4.09827180
C       -8.60748745      11.40000122       4.75609525
C       -8.11507882      10.09679420       4.87989380
N       -5.74349160       7.58987418       3.56963619
C       -5.55475317       7.91203829       2.17436804
H       -0.12433397       2.84886823       2.66844118
H       -1.54377446       4.27312912       4.09482074
H       -5.06524696       2.34551634       2.51136672
H       -3.63938953       0.91748599       1.08788571
H       -3.70525601       4.60307716       5.16267897
H       -5.13365164       3.70068928       4.64922725
H       -4.12174023       5.66367686       2.73129529
H       -6.83944411       7.79505858       6.60315461
H       -5.11484970      10.51311463       3.32290826
H       -5.99925220      12.78988285       3.06764627
H       -9.57829843      11.64813406       5.17660161
H       -8.72235958       9.35582380       5.39463169
H       -5.57263192       6.99788889       1.57565982
H       -4.58932076       8.41283247       2.06687272
H       -6.36651685       8.55797400       1.83238748
C       -8.35317262      13.70629657       3.96751043
C       -8.77528483      14.83069164       3.85799778
Br      -9.45780457      16.64874336       3.68092510
C        1.79121416      -1.79121416       1.79121416
C        3.16457678      -1.84288447       1.56275221
C        3.97078101      -2.65169311       2.36742756
C        3.40668225      -3.41795800       3.39871921
C        2.02466140      -3.34425873       3.62535040
C        1.21698653      -2.53569495       2.82028496
C        4.28321899      -4.28121658       4.27696466
N        4.62773557      -3.54726587       5.48388840
C        5.52319414      -4.11542205       6.32062242
N        6.01218398      -5.32833516       6.23983217
C        6.90458214      -5.43737654       7.26926615
C        6.97687322      -4.27384658       8.01453828
C        7.79892076      -3.97485874       9.18865264
C        8.47517521      -2.75471606       9.32174182
C        9.27128475      -2.49764187      10.44343699
C        9.41019298      -3.46954105      11.43143111
C        8.76099077      -4.69426943      11.30832372
C        7.95776695      -4.94325357      10.19074631
N        6.04261430      -3.44915994       7.41122773
C        5.61578444      -2.14978676       7.87558831
H        3.61613528      -1.26206468       0.76344343
H        5.04304656      -2.68543526       2.18324250
H        1.57204025      -3.91830927       4.43178050
H        0.14573434      -2.49500889       3.00401800
H        5.18422445      -4.56700175       3.71978593
H        3.74986362      -5.20656909       4.52713547
H        4.59691677      -2.53991066       5.37988495
H        7.46562622      -6.35095016       7.42108091
H        8.40971309      -1.99585153       8.54530797
H        9.78466729      -1.54301232      10.52910171
H        8.87164226      -5.46121822      12.07017362
H        7.45570501      -5.90479624      10.11231383
H        4.57371912      -1.97798726       7.59447425
H        6.25838587      -1.39463116       7.41600892
H        5.68527017      -2.10677002       8.96483814
C       10.23699633      -3.20877155      12.58121174
C       10.92944415      -2.99037710      13.54415301
Br      12.04907369      -2.63725174      15.10114760
C       -0.00445707       0.01189536      -1.78238275
H       -0.66409135       0.67374010      -2.43557963
H        0.65740317      -0.63156657      -2.45157240
C       -0.90989263      -0.90692880      -0.91072765
C        0.90977584       0.90977584      -0.90977584
C       -0.00465871       1.77757030       0.00794375
H       -0.66225468       2.44313916      -0.64384735
H        0.64322798       2.43503045       0.67728295
C       -1.78241447       0.00034974      -0.00472694
H       -2.45427497      -0.65498947       0.64260836
H       -2.43311707       0.67328779      -0.65473579
C       -0.91132561       0.90220522       0.91563759
C       -0.01476271      -0.02253852       1.78660255
H       -0.67934791      -0.69751639       2.42135241
H        0.63392994       0.61504881       2.47327442
C        0.01484550      -1.77751727      -0.01636693
H        0.67870853      -2.42144646      -0.68295456
H       -0.62264859      -2.45592969       0.64226336
C        1.78714474       0.01002794       0.00389507
H        2.44202412       0.67113390       0.66197326
H        2.45385902      -0.65136977      -0.64189061
C        0.91606151      -0.90478549       0.90901405
