166
Properties=species:S:1:pos:R:3 pbc="F F F"
C        1.79131547       1.79131547      -1.79131547
C        2.30531504       1.28672098      -2.98271545
C        3.10347434       2.09808217      -3.79795975
C        3.41615027       3.40936356      -3.41908945
C        2.88008910       3.89981250      -2.21646357
C        2.06945399       3.09854228      -1.40615261
C        4.24161813       4.29363749      -4.24646802
C        4.04637226       5.63064661      -4.54882605
N        5.07003465       6.13864401      -5.29537056
C        5.94430677       5.16996209      -5.40880814
N        7.18579648       5.25464638      -5.94077574
C        7.66404923       6.54519668      -6.41956656
C        7.93229384       7.57035681      -5.33548060
C        7.85430848       8.93455797      -5.66681181
C        8.08458287       9.92288818      -4.70798513
C        8.40487459       9.56135197      -3.40161927
C        8.50431740       8.21458722      -3.06540665
Br       8.93063679       7.72310946      -1.28913803
C        8.28460119       7.22191892      -4.02279635
N        5.44396196       3.99869152      -4.87326316
C        6.05740880       2.69686065      -4.97110086
H        2.08135460       0.26989452      -3.29487025
H        3.44902610       1.69129848      -4.74291729
H        3.09196407       4.91828319      -1.89526174
H        1.66381292       3.50619991      -0.48421138
H        3.21407380       6.25648512      -4.25304957
H        7.92378211       4.65459992      -5.59671488
H        6.95034192       6.94697953      -7.15050597
H        8.60506073       6.37888090      -6.95830964
H        7.59025826       9.23507220      -6.67910757
H        8.00091077      10.97186347      -4.97947259
H        8.56686861      10.33553685      -2.65531055
H        8.35604331       6.17727329      -3.73564355
H        5.44634629       2.07785343      -5.63008025
H        6.12910198       2.25913840      -3.97219216
H        7.05763262       2.76450818      -5.40275979
C       -1.79131547      -1.79131547      -1.79131547
C       -2.38186453      -2.93408620      -1.25880074
C       -3.20041789      -3.73637486      -2.06272351
C       -3.41535866      -3.41959233      -3.40965228
C       -2.81546549      -2.25751672      -3.92338296
C       -2.00954421      -1.44421122      -3.12039344
C       -4.27032347      -4.22823250      -4.28316766
C       -5.21393032      -3.80711669      -5.20479791
N       -5.76365573      -4.85473702      -5.88565648
C       -5.13392457      -5.92361601      -5.46553644
N       -5.23957482      -7.17714322      -5.96450055
C       -6.10389552      -7.41067839      -7.11423855
C       -5.61329825      -6.80865851      -8.41617450
C       -6.55840698      -6.49005333      -9.40721795
C       -6.16534698      -5.92720949     -10.62289971
C       -4.81695325      -5.68090193     -10.86999064
C       -3.86961480      -6.00967334      -9.90502313
Br      -2.03901920      -5.66714496     -10.23672012
C       -4.25624306      -6.58187331      -8.69120009
N       -4.28596508      -5.60889863      -4.42105293
C       -3.56383873      -6.55517990      -3.60635167
H       -2.22479222      -3.20374928      -0.21757787
H       -3.68443064      -4.59337291      -1.60543832
H       -2.96948258      -1.97307000      -4.96295641
H       -1.56309913      -0.54819137      -3.54293371
H       -5.51747780      -2.78977646      -5.41635422
H       -4.44766558      -7.80497180      -5.92245952
H       -7.11425116      -7.04638008      -6.88719617
H       -6.18660885      -8.49466870      -7.26097372
H       -7.61771872      -6.66166289      -9.22505643
H       -6.91304139      -5.67055848     -11.36864696
H       -4.51854409      -5.22707147     -11.81210045
H       -3.50133952      -6.81966940      -7.94795122
H       -3.99913766      -6.54944197      -2.60570034
H       -2.50847025      -6.27225460      -3.57970769
H       -3.65122204      -7.56673493      -4.00694362
C       -1.79131547       1.79131547       1.79131547
C       -2.23211222       1.31834337       3.02429588
C       -3.03013265       2.13043019       3.83895342
C       -3.41572873       3.40950514       3.41936940
C       -2.95276225       3.86879276       2.17481018
C       -2.14252463       3.06751944       1.36410481
C       -4.24369788       4.29375419       4.24427156
C       -4.09479444       5.64977464       4.48127583
N       -5.10747188       6.14656005       5.25001730
C       -5.93283080       5.14788538       5.44236082
N       -7.15337210       5.20356054       6.02428595
C       -7.66726282       6.49263211       6.46891754
C       -8.02560407       7.45702379       5.35550340
C       -7.99371966       8.83652697       5.62543163
C       -8.30727673       9.77125253       4.63692691
C       -8.66603879       9.33956565       3.36224139
C       -8.72031170       7.97635002       3.08764955
Br      -9.19896085       7.38987414       1.35404929
C       -8.41716327       7.03678731       4.07536588
N       -5.40451196       3.97631038       4.93509429
C       -5.95555847       2.65538614       5.11442570
H       -1.95079986       0.32651927       3.36880024
H       -3.31745037       1.75135240       4.81443910
H       -3.22246411       4.86236908       1.82067581
H       -1.79429923       3.45100683       0.40891815
H       -3.30394802       6.29647011       4.12319036
H       -7.87811848       4.55848598       5.73849246
H       -6.94177713       6.95577313       7.15027716
H       -8.57657760       6.31070440       7.05496928
H       -7.70078221       9.19202976       6.61162606
H       -8.25839392      10.83372481       4.86012811
H       -8.89310392      10.07274297       2.59186911
H       -8.45468756       5.97846325       3.83580934
H       -5.29074016       2.09214959       5.77139021
H       -6.04990815       2.17160568       4.13891871
H       -6.93875030       2.69979797       5.58635232
C        1.79131547      -1.79131547       1.79131547
C        2.64593391      -2.72202009       1.20679746
C        3.46380745      -3.52217594       2.01353287
C        3.41695117      -3.41847647       3.40917563
C        2.55264369      -2.46707651       3.97664497
C        1.74498938      -1.65448418       3.17467533
C        4.26102030      -4.23161841       4.28908492
C        4.96821614      -3.84328552       5.41434326
N        5.58587531      -4.90056782       6.01760610
C        5.22327891      -5.96065255       5.33914556
N        5.47201037      -7.25243554       5.65677268
C        6.18308557      -7.55303386       6.89269304
C        5.40623362      -7.26882085       8.16307678
C        6.12256752      -6.99221351       9.34089724
C        5.46034687      -6.71646499      10.53864432
C        4.06813811      -6.72077497      10.57893275
C        3.34754034      -7.01218692       9.42458401
Br       1.45659051      -7.00945870       9.47683507
C        4.00486858      -7.29832369       8.22612420
N        4.49820859      -5.59710300       4.22060504
C        4.08287071      -6.48232927       3.16017034
H        2.69534778      -2.82494569       0.12582590
H        4.15336864      -4.20384314       1.52603009
H        2.49790564      -2.34992908       5.05767428
H        1.09030315      -0.92315163       3.64076943
H        5.05346766      -2.84525487       5.82488596
H        4.81788140      -7.97384065       5.38337486
H        7.13611158      -7.00832568       6.90339015
H        6.43212411      -8.62138394       6.88874322
H        7.21067726      -6.96962290       9.32413787
H        6.03194194      -6.48643852      11.43386638
H        3.55787345      -6.48898476      11.51085779
H        3.42257483      -7.51151282       7.33487249
H        4.65434713      -6.23624309       2.26368974
H        3.01011367      -6.35933462       2.99098424
H        4.28596453      -7.52407797       3.41485809
C       -0.00445707       0.01189536      -1.78238275
H       -0.66409135       0.67374010      -2.43557963
H        0.65740317      -0.63156657      -2.45157240
C       -0.90989263      -0.90692880      -0.91072765
C        0.90977584       0.90977584      -0.90977584
C       -0.00465871       1.77757030       0.00794375
H       -0.66225468       2.44313916      -0.64384735
H        0.64322798       2.43503045       0.67728295
C       -1.78241447       0.00034974      -0.00472694
H       -2.45427497      -0.65498947       0.64260836
H       -2.43311707       0.67328779      -0.65473579
C       -0.91132561       0.90220522       0.91563759
C       -0.01476271      -0.02253852       1.78660255
H       -0.67934791      -0.69751639       2.42135241
H        0.63392994       0.61504881       2.47327442
C        0.01484550      -1.77751727      -0.01636693
H        0.67870853      -2.42144646      -0.68295456
H       -0.62264859      -2.45592969       0.64226336
C        1.78714474       0.01002794       0.00389507
H        2.44202412       0.67113390       0.66197326
H        2.45385902      -0.65136977      -0.64189061
C        0.91606151      -0.90478549       0.90901405
