145
Properties=species:S:1:pos:R:3 pbc="F F F"
C        0.00000000       0.00000000       0.00000000
C        0.88141145       0.88141145      -0.88141145
C        1.39541102       0.37681695      -2.07281142
C        2.19357032       1.18817815      -2.88805573
C        2.50624624       2.49945953      -2.50918542
C        1.97018508       2.98990848      -1.30655955
C        1.15954996       2.18863826      -0.49624859
C        3.33171410       3.38373347      -3.33656399
C        3.13646823       4.72074258      -3.63892203
N        4.16013063       5.22873999      -4.38546654
C        5.03440275       4.26005807      -4.49890412
N        6.27589245       4.34474236      -5.03087171
C        6.75414521       5.63529266      -5.50966253
C        7.02238981       6.66045279      -4.42557658
C        6.94440445       8.02465395      -4.75690779
C        7.17467884       9.01298415      -3.79808110
C        7.49497057       8.65144794      -2.49171525
C        7.59441337       7.30468320      -2.15550263
Br       8.02073277       6.81320543      -0.37923401
C        7.37469717       6.31201490      -3.11289233
N        4.53405793       3.08878750      -3.96335913
C        5.14750477       1.78695663      -4.06119683
H        1.17145057      -0.64000950      -2.38496623
H        2.53912208       0.78139445      -3.83301327
H        2.18206004       4.00837916      -0.98535772
H        0.75390889       2.59629589       0.42569264
H        2.30416977       5.34658110      -3.34314554
H        7.01387809       3.74469589      -4.68681086
H        6.04043789       6.03707550      -6.24060195
H        7.69515670       5.46897687      -6.04840562
H        6.68035423       8.32516818      -5.76920355
H        7.09100675      10.06195945      -4.06956857
H        7.65696458       9.42563283      -1.74540652
H        7.44613929       5.26736926      -2.82573952
H        4.53644226       1.16794941      -4.72017622
H        5.21919795       1.34923438      -3.06228813
H        6.14772860       1.85460416      -4.49285576
C       -0.88141145      -0.88141145      -0.88141145
C       -1.49609332      -2.00773203      -0.34121405
C       -2.31461986      -2.80981127      -1.14537306
C       -2.50559802      -2.50960442      -2.49968875
C       -1.88156250      -1.36384374      -3.02124687
C       -1.07549179      -0.55058243      -2.21836260
C       -3.35962309      -3.31852407      -3.37386439
C       -4.28369510      -2.89737325      -4.31506450
N       -4.83878241      -3.94679707      -4.98875767
C       -4.23075248      -5.01837058      -4.54424188
N       -4.34745990      -6.27737913      -5.02666749
C       -5.19851394      -6.51519727      -6.18538918
C       -4.68059747      -5.93927304      -7.48854867
C       -5.60666693      -5.62159956      -8.49769971
C       -5.18807378      -5.08219029      -9.71548003
C       -3.83283634      -4.85885922      -9.94643820
C       -2.90431166      -5.18710806      -8.96317948
Br      -1.06436042      -4.87571989      -9.27309189
C       -3.31658384      -5.73599074      -7.74702981
N       -3.39336646      -4.70068354      -3.49215456
C       -2.69683432      -5.64527033      -2.65355358
H       -1.35790346      -2.26444612       0.70594228
H       -2.81755255      -3.65304034      -0.68293691
H       -2.01650640      -1.09236890      -4.06692163
H       -0.61004947       0.33270426      -2.64716692
H       -4.56934908      -1.87897050      -4.54557683
H       -3.56545032      -6.91581845      -4.96411607
H       -6.20661511      -6.13318770      -5.97831253
H       -5.29487301      -7.59990994      -6.31775625
H       -6.67086534      -5.77533701      -8.32852361
H       -5.92118789      -4.82572044     -10.47562643
H       -3.51438193      -4.42310454     -10.89051746
H       -2.57595204      -5.97374931      -6.98954672
H       -3.14630478      -5.61873847      -1.65952464
H       -1.63795278      -5.37714674      -2.61562095
H       -2.79316942      -6.66118823      -3.04083087
C       -0.88141145       0.88141145       0.88141145
C       -0.73156411       0.84833808       2.26513721
C       -1.53069023       1.66536568       3.07374828
C       -2.50228798       2.50188436       2.51071886
C       -2.63047885       2.52447909       1.11169516
C       -1.82401242       1.72185731       0.29856708
C       -3.35396957       3.37761446       3.32042753
C       -3.70952040       4.69592343       3.09068901
N       -4.58019601       5.16028202       4.03385912
C       -4.83991730       4.14017345       4.81327418
N       -5.76414931       4.08695554       5.80040167
C       -6.61213080       5.24771531       6.03925428
C       -7.62435520       5.53590874       4.94815524
C       -8.08222213       6.85562574       4.78811832
C       -9.00879779       7.18113484       3.79581147
C       -9.49892566       6.18803372       2.95117438
C       -9.06846239       4.87440319       3.11173362
Br      -9.72722554       3.52687978       1.95906688
C       -8.14920364       4.54147852       4.10892223
N       -4.04445367       3.06027837       4.48147252
C       -3.93800719       1.83026447       5.22738658
H        0.01173764       0.20256180       2.72558314
H       -1.35666848       1.65196385       4.14489747
H       -3.36704990       3.17108528       0.63766174
H       -1.94116595       1.76421682      -0.78087064
H       -3.38277671       5.33264859       2.27847111
H       -6.21235147       3.20838569       6.02464768
H       -5.97980313       6.12876042       6.20955179
H       -7.16769027       5.07548766       6.96936127
H       -7.69837735       7.64695903       5.42938957
H       -9.33601760       8.21051720       3.67599997
H      -10.20788687       6.45061235       2.16950471
H       -7.81830883       3.51221057       4.20872867
H       -2.94831393       1.79085503       5.68539894
H       -4.09385626       0.98658228       4.55028193
H       -4.68145694       1.78830063       6.02543096
C        0.88141145      -0.88141145       0.88141145
C        2.21117496      -1.10123744       0.53262699
C        3.02385725      -1.89918488       1.34676206
C        2.51015410      -2.50453117       2.50020593
C        1.16761089      -2.26242454       2.83661767
C        0.35583310      -1.45347451       2.03512920
C        3.32832551      -3.34059980       3.38308625
C        3.37747203      -3.35188676       4.76677405
N        4.21249124      -4.32310510       5.23874081
C        4.63530909      -4.97422424       4.18383161
N        5.36836548      -6.11173536       4.17140568
C        5.72074475      -6.74044137       5.43791428
C        4.55907198      -7.35938549       6.18996172
C        4.65383045      -7.48497897       7.58715677
C        3.61238834      -8.04076527       8.33259049
C        2.46046077      -8.48781102       7.68986197
C        2.36222936      -8.38702818       6.30534166
Br       0.79423304      -8.98598744       5.43295173
C        3.40490887      -7.84090593       5.55378959
N        4.20520800      -4.35501905       3.02597751
C        4.61639163      -4.69375201       1.68551459
H        2.63076843      -0.64692023      -0.36128136
H        4.06806581      -2.01204293       1.07342107
H        0.73674372      -2.70672791       3.73232530
H       -0.67731508      -1.27889357       2.32293365
H        2.83886035      -2.70632964       5.44870642
H        5.26466415      -6.77012278       3.41059791
H        6.23517629      -6.00866873       6.07427033
H        6.44374616      -7.53883424       5.22995880
H        5.54034565      -7.12695255       8.10742776
H        3.69707768      -8.11173445       9.41372264
H        1.64588828      -8.90459196       8.27752369
H        3.30207957      -7.76131021       4.47585830
H        5.23886170      -3.88359543       1.30211076
H        3.72856747      -4.83762744       1.06452556
H        5.21005951      -5.60961865       1.67551037
