174
Properties=species:S:1:pos:R:3 pbc="F F F"
O        6.31344134       9.10050488      -3.63446977
C        5.76576374       8.52516671      -4.57184622
C        6.57686362       8.02193253      -5.75971935
S        7.28904903       6.39128401      -5.36511360
C        5.82620531       5.49474040      -5.16006925
N        4.82220888       5.50286053      -6.00164909
N        3.81938971       4.75424180      -5.44523469
C        4.22507779       4.29141366      -4.27085669
C        3.42139094       3.42412540      -3.40017899
C        3.98698742       2.48993991      -2.51985669
C        3.17694826       1.68654089      -1.70807731
C        1.79103877       1.79103877      -1.79103877
C        1.20732538       2.68583219      -2.68143383
C        2.02024146       3.49564543      -3.48098993
N        5.47908035       4.82007450      -4.02155198
C        6.20319280       4.80999362      -2.77548966
N        4.41872814       8.20501487      -4.65583145
C        3.41826604       8.43377774      -3.68961211
C        3.62587629       9.12924429      -2.49782284
C        2.58140854       9.29458706      -1.58136636
C        1.31594665       8.77033912      -1.85017359
Br      -0.04090719       9.03945654      -0.55080853
C        1.09735293       8.07686494      -3.04337562
Cl      -0.43466462       7.39109263      -3.45790029
C        2.14655260       7.91131672      -3.95583530
H        7.38616443       8.73315089      -5.95283059
H        5.96332480       7.97092758      -6.66491573
H        5.06230974       2.35002330      -2.46041849
H        3.63784841       0.97661395      -1.02549086
H        0.12657404       2.76164042      -2.76771604
H        1.54714542       4.18504591      -4.18025304
H        6.77149470       5.73584663      -2.66106466
H        6.87804732       3.95121220      -2.77614410
H        5.50071453       4.75331415      -1.94112506
H        4.14122658       7.62227082      -5.44619571
H        4.59082186       9.55821569      -2.24521946
H        2.77192502       9.83864330      -0.65870384
H        1.96329213       7.36243878      -4.87792518
O       -3.48007087      -6.64607702      -8.92226811
C       -4.41356994      -6.00910149      -8.44010524
C       -5.67754361      -6.71561222      -7.96535966
S       -5.42518543      -7.34622591      -6.27403530
C       -5.18208448      -5.84470931      -5.45422116
N       -5.95714055      -4.79532310      -5.57425485
N       -5.38408174      -3.78211373      -4.85267074
C       -4.26677548      -4.22653596      -4.29403670
C       -3.40009643      -3.42281305      -3.42278584
C       -2.61357009      -3.97967058      -2.40354335
C       -1.80140564      -3.17015019      -1.60001064
C       -1.79103877      -1.79103877      -1.79103877
C       -2.58878778      -1.21306879      -2.77273484
C       -3.38857638      -2.02657815      -3.58172228
N       -4.06581568      -5.52371986      -4.73117129
C       -2.87035191      -6.31798715      -4.60033703
N       -4.43169833      -4.64204536      -8.20583078
C       -3.39287226      -3.71660332      -8.43218032
C       -2.17750779      -4.03730280      -9.03813283
C       -1.18924152      -3.06110941      -9.20701103
C       -1.40865310      -1.75163531      -8.77617093
Br      -0.01320145      -0.49329612      -9.04286031
C       -2.62461925      -1.42003467      -8.17293957
Cl      -2.98202604       0.17372163      -7.60602390
C       -3.60921222      -2.40116522      -8.00332718
H       -5.87872372      -7.55509877      -8.63832342
H       -6.54393761      -6.04777874      -8.00745176
H       -2.62999597      -5.04574004      -2.19701551
H       -1.19209695      -3.62509542      -0.82276084
H       -2.60254614      -0.13598976      -2.91739459
H       -4.01494584      -1.55721250      -4.34028603
H       -2.73737672      -6.94895396      -5.48207531
H       -2.96393601      -6.93647756      -3.70499005
H       -1.99839778      -5.66375950      -4.53299646
H       -5.23609991      -4.28244798      -7.69114522
H       -1.96102358      -5.04044855      -9.39278489
H       -0.24986197      -3.33942047      -9.67998972
H       -4.54876032      -2.12981483      -7.52508094
O       -6.02833405       3.79103170       9.22905024
C       -6.54791651       4.14234003       8.17252013
C       -6.84641222       5.61170122       7.90040206
S       -5.34694101       6.43158992       7.26691571
C       -5.14141748       5.53610909       5.80348838
N       -6.09086281       5.30498888       4.93086681
N       -5.56616634       4.48602136       3.96667851
C       -4.29823877       4.23068155       4.25842781
C       -3.40754841       3.40778039       3.43036653
C       -2.01916248       3.60045503       3.37716651
C       -1.21183221       2.78718811       2.57254615
C       -1.79103877       1.79103877       1.79103877
C       -3.16913278       1.60413992       1.80131870
C       -3.97043906       2.41007135       2.61636641
N       -4.02044045       4.82253982       5.47772656
C       -2.86671461       4.60766118       6.31430030
N       -6.86061713       3.31490872       7.10404861
C       -6.62173083       1.93048269       6.98944237
C       -6.10035573       1.13900361       8.01358408
C       -5.87426507      -0.22685105       7.80994793
C       -6.17271197      -0.81683832       6.58058570
Br      -5.83214053      -2.67427796       6.39149531
C       -6.69992620      -0.03318432       5.55085161
Cl      -7.09564373      -0.67724330       3.99592788
C       -6.92141971       1.33379644       5.75848847
H       -7.14722659       6.08403933       8.84087999
H       -7.67837521       5.72312432       7.19766858
H       -1.53810040       4.39567944       3.93897169
H       -0.13659217       2.94814749       2.55521355
H       -3.63315737       0.84213411       1.18063901
H       -5.04956331       2.25695850       2.60592256
H       -3.15099703       4.64920075       7.36820822
H       -2.13052294       5.38316816       6.09171252
H       -2.45496181       3.61364952       6.12654242
H       -7.17956520       3.77774259       6.25238533
H       -5.85552913       1.55072649       8.98800139
H       -5.46420208      -0.81971533       8.62478542
H       -7.32578785       1.93319984       4.94466840
O        9.08834546      -3.62198971       6.33808082
C        8.51971688      -4.55946038       5.78359941
C        8.01821155      -5.75323692       6.58706702
S        6.38261049      -5.36919028       7.29364587
C        5.49173773      -5.16157350       5.82770372
N        5.50817506      -5.99856397       4.81997947
N        4.76156788      -5.44099727       3.81630105
C        4.29161913      -4.27055742       4.22517159
C        3.42402951      -3.40016712       3.42149869
C        2.48334227      -2.52661930       3.98682245
C        1.67993526      -1.71481009       3.17682112
C        1.79103877      -1.79103877       1.79103877
C        2.69246173      -2.67475447       1.20737520
C        3.50221468      -3.47432479       2.02033734
N        4.81350322      -4.02454539       5.48265822
C        4.79453659      -2.78182506       6.21231444
N        8.20600910      -4.63879825       4.43476710
C        8.43490170      -3.66704992       3.43970428
C        9.12403626      -2.47309501       3.65581215
C        9.28993277      -1.55119494       2.61623425
C        8.77260113      -1.81663748       1.34722074
Br       9.04194524      -0.50995864      -0.00254599
C        8.08551467      -3.01194654       1.12013227
Cl       7.40851907      -3.42262578      -0.41681654
C        7.91937339      -3.92987219       2.16445904
H        8.72664815      -5.94680180       7.39869596
H        7.97405636      -6.65587252       5.96923923
H        2.33832384      -2.47266954       5.06175814
H        0.96486617      -1.03751253       3.63757452
H        2.77351877      -2.75581147       0.12660026
H        4.19688791      -4.16833589       1.54722058
H        5.71729798      -2.66580588       6.78530213
H        3.93274049      -2.78939054       6.88327258
H        4.73724817      -1.94455873       5.51334684
H        7.62809555      -5.43051360       4.15108395
H        9.54751803      -2.22292685       4.62381213
H        9.82895282      -0.62696504       2.81335431
H        7.37549652      -4.85358393       1.97457564
C       -0.00445707       0.01189536      -1.78238275
H       -0.66409135       0.67374010      -2.43557963
H        0.65740317      -0.63156657      -2.45157240
C       -0.90989263      -0.90692880      -0.91072765
C        0.90977584       0.90977584      -0.90977584
C       -0.00465871       1.77757030       0.00794375
H       -0.66225468       2.44313916      -0.64384735
H        0.64322798       2.43503045       0.67728295
C       -1.78241447       0.00034974      -0.00472694
H       -2.45427497      -0.65498947       0.64260836
H       -2.43311707       0.67328779      -0.65473579
C       -0.91132561       0.90220522       0.91563759
C       -0.01476271      -0.02253852       1.78660255
H       -0.67934791      -0.69751639       2.42135241
H        0.63392994       0.61504881       2.47327442
C        0.01484550      -1.77751727      -0.01636693
H        0.67870853      -2.42144646      -0.68295456
H       -0.62264859      -2.45592969       0.64226336
C        1.78714474       0.01002794       0.00389507
H        2.44202412       0.67113390       0.66197326
H        2.45385902      -0.65136977      -0.64189061
C        0.91606151      -0.90478549       0.90901405
