182
Properties=species:S:1:pos:R:3 pbc="F F F"
O        6.31344134       9.10050488      -3.63446977
C        5.76576374       8.52516671      -4.57184622
C        6.57686362       8.02193253      -5.75971935
S        7.28904903       6.39128401      -5.36511360
C        5.82620531       5.49474040      -5.16006925
N        4.82220888       5.50286053      -6.00164909
N        3.81938971       4.75424180      -5.44523469
C        4.22507779       4.29141366      -4.27085669
C        3.42139094       3.42412540      -3.40017899
C        3.98698742       2.48993991      -2.51985669
C        3.17694826       1.68654089      -1.70807731
C        1.79103877       1.79103877      -1.79103877
C        1.20732538       2.68583219      -2.68143383
C        2.02024146       3.49564543      -3.48098993
N        5.47908035       4.82007450      -4.02155198
C        6.20319280       4.80999362      -2.77548966
N        4.41872814       8.20501487      -4.65583145
C        3.41826604       8.43377774      -3.68961211
C        3.62587629       9.12924429      -2.49782284
C        2.58140854       9.29458706      -1.58136636
C        1.31594665       8.77033912      -1.85017359
C        1.09735293       8.07686494      -3.04337562
Cl      -0.43466462       7.39109263      -3.45790029
C        2.14655260       7.91131672      -3.95583530
H        7.38616443       8.73315089      -5.95283059
H        5.96332480       7.97092758      -6.66491573
H        5.06230974       2.35002330      -2.46041849
H        3.63784841       0.97661395      -1.02549086
H        0.12657404       2.76164042      -2.76771604
H        1.54714542       4.18504591      -4.18025304
H        6.77149470       5.73584663      -2.66106466
H        6.87804732       3.95121220      -2.77614410
H        5.50071453       4.75331415      -1.94112506
H        4.14122658       7.62227082      -5.44619571
H        4.59082186       9.55821569      -2.24521946
H        2.77192502       9.83864330      -0.65870384
H        1.96329213       7.36243878      -4.87792518
C        0.28642806       8.97453310      -0.86427486
C       -0.57579375       9.14554556      -0.03858467
Br      -1.96993350       9.42205825       1.29648652
O       -5.59667081      -9.38017596      -4.07156922
C       -5.26034952      -8.62329858      -4.97912857
C       -6.28530982      -8.09684455      -5.97636112
S       -7.12966110      -6.64278368      -5.27300187
C       -5.77354758      -5.58217902      -5.12528836
N       -4.90394970      -5.34640624      -6.07636255
N       -3.93248752      -4.53863105      -5.54774763
C       -4.22335788      -4.28464369      -4.27934657
C       -3.41808527      -3.42667757      -3.40093249
C       -3.96502390      -2.69591853      -2.33584159
C       -3.15392716      -1.89261682      -1.52502249
C       -1.79103877      -1.79103877      -1.79103877
C       -1.23253858      -2.47932221      -2.86273061
C       -2.04396405      -3.29082718      -3.66208558
N       -5.35574313      -5.01023580      -3.95472791
C       -5.89394341      -5.25446456      -2.64026812
N       -3.98784839      -8.10980773      -5.18191833
C       -2.84151605      -8.31289923      -4.38724061
C       -2.79335901      -9.17136684      -3.28821756
C       -1.61853192      -9.29988424      -2.53894580
C       -0.47707776      -8.57463277      -2.88474882
C       -0.51439685      -7.71641144      -3.98678520
Cl       0.84875216      -6.77726860      -4.48581187
C       -1.69333867      -7.58884472      -4.73152123
H       -7.02034179      -8.88530248      -6.16650164
H       -5.81550411      -7.84986156      -6.93380244
H       -5.03038643      -2.71631896      -2.12604613
H       -3.59820199      -1.34330059      -0.69845063
H       -0.17345882      -2.39188283      -3.09058884
H       -1.59255770      -3.81622358      -4.50366309
H       -6.32281181      -6.25775278      -2.58784140
H       -6.66236050      -4.50511178      -2.43793133
H       -5.09384059      -5.20266839      -1.89864476
H       -3.89730348      -7.40150834      -5.91088129
H       -3.65349398      -9.75893603      -2.98182700
H       -1.60982636      -9.97420610      -1.68523971
H       -1.70968428      -6.91087172      -5.58310009
C        0.69754795      -8.75192764      -2.07085633
C        1.68129698      -8.90041209      -1.38922137
Br       3.27193595      -9.14049888      -0.28707530
O       -8.08459442       3.19884897       7.76497260
C       -7.95972792       4.03223367       6.87081508
C       -7.66787272       5.49138215       7.19926062
S       -5.87701861       5.71240703       7.45602101
C       -5.31821494       5.28501111       5.87778890
N       -5.80844716       5.75908061       4.75919073
N       -5.17574339       5.11163514       3.73148767
C       -4.30031023       4.25235303       4.23468488
C       -3.41751729       3.40113172       3.42704631
C       -2.15811492       2.96967377       3.86899533
C       -1.35369730       2.15651175       3.06135742
C       -1.79103877       1.79103877       1.79103877
C       -3.02114108       2.23532002       1.31813030
C       -3.82715067       3.03657479       2.13315136
N       -4.42891059       4.27984461       5.61195163
C       -3.87845428       3.34726658       6.56295522
N       -7.99541496       3.77613382       5.50802568
C       -8.14322737       2.52749267       4.87093586
C       -8.37990882       1.32855324       5.54448135
C       -8.49405672       0.12713151       4.83617373
C       -8.37803952       0.11322912       3.44519071
C       -8.14612985       1.30970625       2.76175738
Cl      -7.98527534       1.38698897       1.04206400
C       -8.02950752       2.50890361       3.47529348
H       -8.20031465       5.75258772       8.11924353
H       -8.03367793       6.15570571       6.40978446
H       -1.76580478       3.27120449       4.83574226
H       -0.38544364       1.82543028       3.42907930
H       -3.36344571       1.97159703       0.32088775
H       -4.78421471       3.38408543       1.74414423
H       -4.57160139       3.20213550       7.39466911
H       -2.92999342       3.74718066       6.92822953
H       -3.73399006       2.37565663       6.08550705
H       -7.75778611       4.55669125       4.89521574
H       -8.48104184       1.28840734       6.62480784
H       -8.67572840      -0.79335560       5.38689936
H       -7.84154722       3.43214943       2.92995944
C       -8.50378121      -1.15680959       2.77826440
C       -8.60908988      -2.22046701       2.21971362
Br      -8.77936509      -3.94031110       1.31658424
O        8.39242764      -3.24470164       7.41128671
C        8.14668754      -4.12547088       6.59061825
C        7.78128379      -5.53391478       7.04331692
S        6.00299094      -5.60622363       7.43623207
C        5.36115456      -5.24725691       5.87260349
N        5.73549537      -5.83042623       4.76079690
N        5.07506803      -5.20982025       3.73397791
C        4.29878800      -4.25703751       4.23152263
C        3.41932054      -3.40056715       3.42580764
C        2.22752820      -2.84971992       3.91953590
C        1.42346896      -2.03681942       3.11127808
C        1.79103877      -1.79103877       1.79103877
C        2.95055596      -2.35461315       1.26942229
C        3.75754302      -3.15528081       2.08405298
N        4.52503704      -4.20041592       5.59525388
C        4.10965376      -3.16798614       6.51103619
N        8.10045636      -3.96558144       5.21353667
C        8.28582275      -2.77704310       4.47879005
C        8.65155345      -1.55560942       5.04578055
C        8.79504365      -0.41643471       4.24588360
C        8.57939724      -0.48842264       2.86863947
C        8.21786255      -1.70842323       2.29130770
Cl       7.92751956      -1.89015889       0.59664986
C        8.07244109      -2.84485036       3.09641317
H        8.36028580      -5.77020242       7.94165770
H        8.04285371      -6.27504587       6.28126852
H        1.88702535      -3.05572046       4.93000571
H        0.50918428      -1.61205248       3.51871646
H        3.23652144      -2.18466343       0.23474563
H        4.65803245      -3.59702427       1.65738766
H        4.86968136      -3.01761642       7.28110821
H        3.16535115      -3.47219998       6.96785248
H        3.99702669      -2.22303630       5.97509076
H        7.76655035      -4.76652039       4.67662237
H        8.83346239      -1.44980967       6.11098496
H        9.07823723       0.52360290       4.71463784
H        7.78319515      -3.78681038       2.63365056
C        8.74208261       0.72099036       2.10414377
C        8.87833160       1.73387374       1.46387862
Br       9.09863471       3.37162051       0.42862403
C       -0.00445707       0.01189536      -1.78238275
H       -0.66409135       0.67374010      -2.43557963
H        0.65740317      -0.63156657      -2.45157240
C       -0.90989263      -0.90692880      -0.91072765
C        0.90977584       0.90977584      -0.90977584
C       -0.00465871       1.77757030       0.00794375
H       -0.66225468       2.44313916      -0.64384735
H        0.64322798       2.43503045       0.67728295
C       -1.78241447       0.00034974      -0.00472694
H       -2.45427497      -0.65498947       0.64260836
H       -2.43311707       0.67328779      -0.65473579
C       -0.91132561       0.90220522       0.91563759
C       -0.01476271      -0.02253852       1.78660255
H       -0.67934791      -0.69751639       2.42135241
H        0.63392994       0.61504881       2.47327442
C        0.01484550      -1.77751727      -0.01636693
H        0.67870853      -2.42144646      -0.68295456
H       -0.62264859      -2.45592969       0.64226336
C        1.78714474       0.01002794       0.00389507
H        2.44202412       0.67113390       0.66197326
H        2.45385902      -0.65136977      -0.64189061
C        0.91606151      -0.90478549       0.90901405
