150
Properties=species:S:1:pos:R:3 pbc="F F F"
C        1.79130984       1.79130984      -1.79130984
C        1.22903693       2.48762991      -2.85703752
C        2.04205034       3.29251882      -3.65829763
C        3.41223795       3.40433214      -3.40100521
C        3.96694994       2.70330082      -2.32837792
C        3.15488671       1.89573081      -1.52385611
O        4.08484964       4.22559855      -4.26318164
C        5.49770932       4.33552546      -4.08788244
C        6.00970286       5.20896457      -5.17156821
O        5.85183417       4.75775255      -6.44864509
N        6.43069353       5.71139537      -7.28073859
C        6.88539145       6.64801790      -6.43121892
N        6.64808150       6.35641552      -5.10296468
C        7.58317242       7.85941306      -6.85220332
C        7.80761886       8.13043757      -8.21177200
C        8.47991496       9.29130556      -8.60750015
C        8.93281070      10.18965391      -7.64440322
C        8.71950149       9.93960671      -6.29067383
C        8.04639484       8.77801869      -5.89735212
H        0.16687022       2.41389232      -3.07371676
H        1.60294639       3.83696287      -4.49150118
H        5.02174583       2.76041560      -2.08421444
H        3.59636856       1.35403762      -0.69111869
H        5.97656626       3.35224413      -4.16535862
H        5.72381708       4.79057027      -3.11725095
H        7.45993888       7.43878796      -8.97760323
H        8.64256362       9.48104722      -9.66508868
H        9.07011289      10.63736448      -5.53467990
H        7.88572736       8.59511498      -4.83615535
C        9.62608738      11.38460106      -8.05068977
C       10.20670660      12.38536930      -8.39095476
Br      11.14551876      14.00352689      -8.94113446
C       -1.79130984      -1.79130984      -1.79130984
C       -3.17333416      -1.77156192      -1.62880828
C       -3.97287472      -2.58034374      -2.43964833
C       -3.39927906      -3.40823999      -3.41005625
C       -2.01185462      -3.41988196      -3.56689210
C       -1.20801413      -2.61076950      -2.75569000
O       -4.29951863      -4.14333476      -4.13077643
C       -3.77160863      -5.05154178      -5.09796681
C       -4.91915459      -5.78040699      -5.69067407
O       -5.65263181      -6.55985715      -4.84574284
N       -6.63887789      -7.16451200      -5.61943761
C       -6.40966696      -6.69680966      -6.85815166
N       -5.33210779      -5.83765552      -6.93769839
C       -7.20346399      -7.06418955      -8.02713526
C       -8.29637377      -7.93890655      -7.91454811
C       -9.05017316      -8.28913249      -9.03941502
C       -8.71494849      -7.76603284     -10.28588651
C       -7.63501922      -6.89612603     -10.41863677
C       -6.88284623      -6.54694603      -9.29197340
H       -3.63833636      -1.13564281      -0.88050013
H       -5.05323274      -2.56525164      -2.31292606
H       -1.51915265      -4.03966621      -4.30755702
H       -0.12883600      -2.62699657      -2.88569230
H       -3.09578765      -5.77365947      -4.62472189
H       -3.24512641      -4.50107139      -5.88544051
H       -8.57216661      -8.35666110      -6.94750237
H       -9.89187983      -8.96761185      -8.92920784
H       -7.36913775      -6.48431197     -11.38870755
H       -6.04182634      -5.86558107      -9.40959028
C       -9.48968499      -8.12684143     -11.44485178
C      -10.13852682      -8.42901863     -12.41548520
Br     -11.18764917      -8.91761361     -13.98491734
C       -1.79130984       1.79130984       1.79130984
C       -3.17563165       1.74034182       1.65773088
C       -3.97513453       2.54935247       2.46837979
C       -3.39924614       3.40845817       3.40987099
C       -2.00947385       3.45131589       3.53783893
C       -1.20567332       2.64205404       2.72674626
O       -4.29970709       4.13992517       4.13399756
C       -3.77120393       5.07832032       5.07159298
C       -4.92132287       5.79593508       5.67297769
O       -5.68759105       6.54286582       4.82777493
N       -6.67026817       7.14330271       5.60925662
C       -6.40653123       6.70592487       6.85217218
N       -5.31012455       5.87050543       6.92683172
C       -7.18397870       7.08120728       8.02960281
C       -8.29671664       7.93119311       7.92191868
C       -9.03471995       8.28922725       9.05477347
C       -8.66371615       7.79877368      10.30437800
C       -7.56364559       6.95374934      10.43238708
C       -6.82732578       6.59669090       9.29774898
H       -3.64244377       1.07989751       0.93213802
H       -5.05728943       2.50986116       2.36425985
H       -1.51479545       4.09603352       4.25554691
H       -0.12465502       2.68272358       2.83414627
H       -3.12008033       5.80402819       4.57006049
H       -3.21771875       4.55491498       5.85900457
H       -8.60050678       8.32329791       6.95252537
H       -9.89227051       8.94817401       8.94825500
H       -7.26982398       6.56744488      11.40488840
H       -5.97025280       5.93499846       9.41174643
C       -9.42217785       8.16766579      11.47153457
C      -10.05738952       8.47661293      12.44902821
Br     -11.08447306       8.97615432      14.02955274
C        1.79130984      -1.79130984       1.79130984
C        1.21359484      -2.57212357       2.78798594
C        2.02677172      -3.37639981       3.58969526
C        3.41238655      -3.40374700       3.40144175
C        3.98266074      -2.61824983       2.39771811
C        3.17045372      -1.81107494       1.59294497
O        4.08331387      -4.23484601       4.25546993
C        5.50717646      -4.26255587       4.15138490
C        6.00939509      -5.16588971       5.21495084
O        5.76210235      -4.79304950       6.50307996
N        6.34823495      -5.75933781       7.31525473
C        6.89584707      -6.62413016       6.44465105
N        6.71153512      -6.27371473       5.12221185
C        7.63557941      -7.81913766       6.84007173
C        7.80434590      -8.15138441       8.19409812
C        8.51722816      -9.29594667       8.56554583
C        9.06679752     -10.11652492       7.58354539
C        8.90997171      -9.80494179       6.23486852
C        8.19611887      -8.65983312       5.86581366
H        0.13928516      -2.56475909       2.95043505
H        1.57559621      -3.98687713       4.36893710
H        5.05013076      -2.60793013       2.20831499
H        3.62412531      -1.20324412       0.81415544
H        5.92758569      -3.26164346       4.30493986
H        5.80701444      -4.65228254       3.17234132
H        7.38098545      -7.52087424       8.97447038
H        8.63545782      -9.53398322       9.61925848
H        9.33608122     -10.44192455       5.46415149
H        8.08041946      -8.42831892       4.80825931
C        9.80190265     -11.29456665       7.96490891
C       10.41755319     -12.28117660       8.28430086
Br      11.41300805     -13.87644144       8.80073062
C       -0.00445707       0.01189536      -1.78238275
H       -0.66409135       0.67374010      -2.43557963
H        0.65740317      -0.63156657      -2.45157240
C       -0.90989263      -0.90692880      -0.91072765
C        0.90977584       0.90977584      -0.90977584
C       -0.00465871       1.77757030       0.00794375
H       -0.66225468       2.44313916      -0.64384735
H        0.64322798       2.43503045       0.67728295
C       -1.78241447       0.00034974      -0.00472694
H       -2.45427497      -0.65498947       0.64260836
H       -2.43311707       0.67328779      -0.65473579
C       -0.91132561       0.90220522       0.91563759
C       -0.01476271      -0.02253852       1.78660255
H       -0.67934791      -0.69751639       2.42135241
H        0.63392994       0.61504881       2.47327442
C        0.01484550      -1.77751727      -0.01636693
H        0.67870853      -2.42144646      -0.68295456
H       -0.62264859      -2.45592969       0.64226336
C        1.78714474       0.01002794       0.00389507
H        2.44202412       0.67113390       0.66197326
H        2.45385902      -0.65136977      -0.64189061
C        0.91606151      -0.90478549       0.90901405
