129
Properties=species:S:1:pos:R:3 pbc="F F F"
C        0.00000000       0.00000000       0.00000000
C        0.88140582       0.88140582      -0.88140582
C        0.31913290       1.57772588      -1.94713350
C        1.13214631       2.38261480      -2.74839361
C        2.50233393       2.49442812      -2.49110119
C        3.05704591       1.79339679      -1.41847390
C        2.24498269       0.98582678      -0.61395209
O        3.17494561       3.31569452      -3.35327761
C        4.58780529       3.42562144      -3.17797842
C        5.09979884       4.29906055      -4.26166419
O        4.94193014       3.84784852      -5.53874106
N        5.52078951       4.80149135      -6.37083457
C        5.97548743       5.73811388      -5.52131490
N        5.73817748       5.44651149      -4.19306066
C        6.67326840       6.94950904      -5.94229929
C        6.89771483       7.22053355      -7.30186797
C        7.57001094       8.38140153      -7.69759612
C        8.02290668       9.27974988      -6.73449920
C        7.80959746       9.02970268      -5.38076980
C        7.13649081       7.86811467      -4.98744810
H       -0.74303381       1.50398830      -2.16381273
H        0.69304237       2.92705884      -3.58159716
H        4.11184181       1.85051158      -1.17431042
H        2.68646454       0.44413359       0.21878534
H        5.06666223       2.44234011      -3.25545459
H        4.81391306       3.88066625      -2.20734692
H        6.55003485       6.52888394      -8.06769920
H        7.73265960       8.57114320      -8.75518465
H        8.16020886       9.72746046      -4.62477587
H        6.97582333       7.68521096      -3.92625133
C        8.71618336      10.47469703      -7.14078575
C        9.29680257      11.47546527      -7.48105073
Br      10.23561474      13.09362287      -8.03123043
C       -0.88140582      -0.88140582      -0.88140582
C       -1.97337097      -1.54300654      -0.32761477
C       -2.77533314      -2.34696645      -1.14085513
C       -2.49164132      -2.49371337      -2.50250854
C       -1.39495446      -1.82451942      -3.04944272
C       -0.58931507      -1.01842828      -2.23701821
O       -3.35882274      -3.30835681      -3.17673820
C       -3.08828700      -3.54430765      -4.55881050
C       -4.10655565      -4.50431145      -5.04965646
O       -4.10674030      -5.74277622      -4.47900321
N       -5.10882284      -6.47147717      -5.11281540
C       -5.61941316      -5.60830311      -6.00719993
N       -5.00492568      -4.37219256      -6.00063138
C       -6.71028333      -5.93325662      -6.92153677
C       -7.31799380      -7.19919469      -6.90292787
C       -8.36023824      -7.50454522      -7.78422513
C       -8.80173488      -6.54423307      -8.69118781
C       -8.21269417      -5.28229410      -8.72508167
C       -7.17068692      -4.97909406      -7.84227261
H       -2.21044236      -1.44228458       0.72795972
H       -3.62898443      -2.86435255      -0.70836138
H       -1.13591127      -1.90132413      -4.09942841
H        0.26218545      -0.50156379      -2.67243446
H       -2.09176784      -3.98221517      -4.69047392
H       -3.16801857      -2.60943556      -5.12447210
H       -6.98514112      -7.96140364      -6.20007324
H       -8.81613076      -8.49049488      -7.75236182
H       -8.55349157      -4.52869772      -9.43025590
H       -6.71960222      -3.98884562      -7.87883778
C       -9.87397716      -6.85793910      -9.59974988
C      -10.77198006      -7.12066791     -10.36067061
Br     -12.22397481      -7.54547816     -11.59101507
C       -0.88140582       0.88140582       0.88140582
C       -2.26539921       0.83610472       0.74248836
C       -3.06490834       1.64507377       1.55317262
C       -2.48934752       2.49851449       2.50000121
C       -1.09991295       2.53570593       2.63329773
C       -0.29610551       1.72647129       1.82218476
O       -3.38977871       3.23063985       3.22349919
C       -2.86129294       4.16356036       4.16655185
C       -4.01097186       4.88322256       4.76632915
O       -4.77129451       5.63614865       3.92107657
N       -5.75464236       6.23733934       4.70113371
C       -5.49717747       5.79435879       5.94337994
N       -4.40417279       4.95457906       6.01899778
C       -6.27761470       6.16815875       7.11930328
C       -7.38677290       7.02268851       7.01065495
C       -8.12766423       7.37925898       8.14208538
C       -7.76315640       6.88277800       9.39122136
C       -6.66672283       6.03318135       9.52016577
C       -5.92750470       5.67759948       8.38694941
H       -2.73195239       0.18011211       0.01270273
H       -4.14680632       1.61001128       1.44488077
H       -0.60552293       3.17589735       3.35524353
H        0.78464803       1.76270402       1.93375681
H       -2.20560577       4.88869259       3.67015858
H       -2.31270296       3.63516613       4.95405714
H       -7.68548025       7.41952865       6.04160910
H       -8.98235368       8.04179508       8.03483870
H       -6.37797392       5.64216713      10.49230415
H       -5.07333097       5.01229170       8.50166295
C       -8.52459352       7.25015507      10.55691755
C       -9.16229711       7.55783336      11.53318811
Br     -10.19340987       8.05532314      13.11173503
C        0.88140582      -0.88140582       0.88140582
C        0.60081943      -1.00420301       2.23896984
C        1.41154431      -1.81312387       3.03848655
C        2.50018416      -2.49829742       2.48938165
C        2.77270435      -2.37029200       1.12592026
C        1.96230029      -1.56021618       0.32224508
O        3.20503794      -3.25254518       3.38633463
C        4.36301789      -3.93044216       2.89794510
C        4.99526894      -4.61157240       4.05368223
O        5.45740949      -3.81320169       5.05790855
N        6.03264540      -4.65742450       6.00304551
C        5.86676064      -5.88527199       5.48288358
N        5.23156756      -5.88891009       4.25727197
C        6.32382639      -7.11203762       6.12921272
C        6.96489531      -7.07698493       7.37823611
C        7.40319906      -8.25598990       7.98981963
C        7.20293742      -9.47930216       7.35491618
C        6.56839588      -9.53562528       6.11604878
C        6.13047331      -8.35503753       5.50654273
H       -0.24001121      -0.47997166       2.68480677
H        1.19259908      -1.90935795       4.09974134
H        3.60101511      -2.88427530       0.65137340
H        2.18280212      -1.46719750      -0.73818683
H        5.07767323      -3.21859588       2.46818783
H        4.07620361      -4.67678959       2.14893303
H        7.12917004      -6.12907534       7.88837262
H        7.89686830      -8.20550485       8.95661430
H        6.40882046     -10.48745428       5.61617045
H        5.63538590      -8.41329349       4.53860622
C        7.65481191     -10.69366954       7.98318469
C        8.03325679     -11.71070221       8.50935957
Br       8.64517016     -13.35515804       9.36013984
