157
Properties=species:S:1:pos:R:3 pbc="F F F"
C        0.00000000       0.00000000       0.00000000
C        0.88168692       0.88168692      -0.88168692
C        0.31993322       1.95344486      -1.57366219
C        1.12608921       2.75246834      -2.38968771
C        2.49069889       2.47161706      -2.52103235
C        3.05423251       1.41338540      -1.79265239
C        2.24539882       0.61029142      -0.98370296
C        3.31611992       3.34109383      -3.40466222
O        3.04751754       4.53955300      -3.47742349
C        4.48951745       2.80459413      -4.15606218
C        4.45864856       1.47882464      -4.62039819
C        5.58594064       0.92224585      -5.21283029
O        5.48972025      -0.38778831      -5.60396050
C        6.59291830      -0.77513878      -6.43358437
C        7.90250905      -0.25319986      -5.86654783
O        7.91012272       1.17886102      -5.87277422
C        6.74522755       1.68342198      -5.35344481
C        6.75908510       3.02572739      -4.96905020
C        5.63342966       3.61062964      -4.37619480
N        5.59793996       4.97520347      -3.99438205
C        6.62470903       5.90537744      -4.02778539
O        7.78587711       5.67519469      -4.35427824
C        6.18198108       7.29284314      -3.57318209
H        5.43632495       7.22083858      -2.77615793
C        7.34596188       8.16549674      -3.14133481
Br       5.29617339       8.12135115      -5.10672239
H       -0.74073470       2.17617748      -1.48434417
H        0.68436178       3.59111106      -2.92499136
H        4.11985680       1.20135745      -1.83550071
H        2.68858890      -0.21802641      -0.43526416
H        3.56689961       0.86527283      -4.52233455
H        6.60765188      -1.86870088      -6.47459782
H        6.41510424      -0.39525075      -7.44686179
H        8.74490055      -0.59374111      -6.47622085
H        8.06274810      -0.60003570      -4.83757401
H        7.67158852       3.58595793      -5.14425153
H        4.67424712       5.30871274      -3.70204024
H        8.08292510       8.29615049      -3.94232538
H        7.86600286       7.71233442      -2.28975714
H        7.00520541       9.16057469      -2.83683166
C       -0.88168692      -0.88168692      -0.88168692
C       -2.26877162      -0.82016768      -0.75810097
C       -3.07419499      -1.63647646      -1.55757380
C       -2.49073034      -2.52102019      -2.47159777
C       -1.09551689      -2.54996580      -2.61478761
C       -0.29123949      -1.73925474      -1.80889897
C       -3.38107605      -3.37954773      -3.30125219
O       -4.46506315      -2.92934683      -3.67008404
C       -2.96576675      -4.74520173      -3.73920528
C       -2.14473277      -5.51504540      -2.89809322
C       -1.64704188      -6.73575727      -3.33821763
O       -0.82187260      -7.40872664      -2.47529320
C       -0.58795463      -8.75533005      -2.90807921
C       -0.31310639      -8.80089745      -4.40185318
O       -1.46532859      -8.36457496      -5.13185440
C       -1.96993567      -7.19975295      -4.61240573
C       -2.85007044      -6.48042286      -5.42336940
C       -3.36981117      -5.25139518      -4.99904775
N       -4.28449987      -4.50220757      -5.78081803
C       -4.73013254      -4.76030019      -7.06743913
O       -4.34955914      -5.68288851      -7.78290239
C       -5.75293354      -3.73906807      -7.55600470
H       -5.52288481      -2.74269062      -7.16774603
C       -5.87385810      -3.71050571      -9.06842961
Br      -7.47170762      -4.26557871      -6.78696059
H       -2.73232007      -0.14153007      -0.04593681
H       -4.15712679      -1.58228928      -1.46104812
H       -0.61548226      -3.19042423      -3.35080849
H        0.79050271      -1.78041234      -1.91591702
H       -1.87893087      -5.17496700      -1.90060912
H        0.27510567      -9.13573176      -2.35292273
H       -1.46223900      -9.36182650      -2.64264979
H       -0.08642406      -9.82391478      -4.71704145
H        0.53709460      -8.16259789      -4.67478311
H       -3.10564385      -6.90961813      -6.38653600
H       -4.69163632      -3.69531692      -5.29804686
H       -6.15577578      -4.68743407      -9.47819112
H       -4.91622426      -3.43025292      -9.52161724
H       -6.62553948      -2.98362484      -9.39344744
C       -0.88168692       0.88168692       0.88168692
C       -1.93105632       0.31369352       1.60229042
C       -2.74464265       1.12390818       2.39969441
C       -2.51428170       2.50258956       2.46647704
C       -1.43378053       3.05991665       1.76657312
C       -0.62634579       2.24987318       0.96317423
C       -3.40615342       3.33425209       3.32147046
O       -3.84482312       2.85389568       4.36577522
C       -3.73245968       4.74811443       2.96959964
C       -3.82821402       5.11342555       1.61623182
C       -4.00885378       6.44618113       1.26598187
O       -4.05315693       6.72741579      -0.07468028
C       -4.50681935       8.06500491      -0.32046037
C       -3.84030149       9.04337166       0.63218388
O       -4.22086776       8.75793281       1.98295738
C       -4.10320366       7.41962294       2.25926774
C       -4.09065287       7.05588081       3.60732901
C       -3.91671948       5.71873718       3.98479744
N       -3.92259312       5.30457648       5.34035587
C       -3.98750309       6.09019568       6.48017309
O       -3.99622979       7.31794804       6.50117220
C       -4.01444645       5.26828890       7.76527097
H       -3.39735971       4.37071785       7.66524391
C       -3.59744233       6.07284090       8.98251019
Br      -5.85986105       4.66589400       7.99849187
H       -2.12331469      -0.75546761       1.55193987
H       -3.56040114       0.67580289       2.96426016
H       -1.19950775       4.11934129       1.83786593
H        0.19938342       2.69378471       0.41142535
H       -3.75779293       4.37304764       0.82366642
H       -4.25513332       8.31437013      -1.35595464
H       -5.59841881       8.08554549      -0.21724901
H       -4.15249663      10.06768140       0.40720226
H       -2.74619987       8.99534705       0.55873949
H       -4.21552008       7.84704808       4.33922983
H       -3.92441468       4.28844198       5.47214344
H       -4.23546406       6.95120804       9.13472887
H       -2.56871157       6.43247041       8.86691244
H       -3.64184135       5.46712933       9.89364108
C        0.88168692      -0.88168692       0.88168692
C        0.54860411      -2.22101775       1.07741840
C        1.35009455      -3.02383536       1.89431535
C        2.47727795      -2.48303836       2.52303200
C        2.82506559      -1.14389258       2.29131213
C        2.01811588      -0.34027661       1.48100071
C        3.30303574      -3.36762158       3.39121864
O        3.42732220      -4.55263103       3.08454079
C        4.02427829      -2.83899393       4.58690154
C        3.45626466      -1.78270067       5.31890606
C        4.16679269      -1.19529507       6.35892902
O        3.56152957      -0.14535140       6.99901147
C        4.24804134       0.20464224       8.20796479
C        5.75139650       0.22314168       7.98760221
O        6.22003256      -1.08821550       7.65350989
C        5.44078134      -1.66062436       6.68068864
C        5.97946217      -2.76197760       6.01242293
C        5.27969407      -3.37478747       4.96577256
N        5.77977860      -4.50915794       4.27858893
C        7.01271663      -5.12621504       4.41894018
O        7.92338105      -4.74354485       5.14842413
C        7.16474308      -6.35533100       3.52793223
H        6.64923422      -6.20984197       2.57424529
C        8.61589863      -6.73646072       3.30043408
Br       6.25516254      -7.82157159       4.44751280
H       -0.32913771      -2.64955417       0.59937049
H        1.08895537      -4.07037510       2.04113373
H        3.72191345      -0.70894348       2.72585804
H        2.28707271       0.70140759       1.32016152
H        2.46480261      -1.40235438       5.08734999
H        3.89805219       1.19614018       8.51163681
H        3.96593283      -0.51338289       8.98739957
H        6.26682567       0.53908228       8.89963691
H        6.03185474       0.91178112       7.18021278
H        6.95424600      -3.11349156       6.33406042
H        5.11179689      -4.94072123       3.63248199
H        9.14146867      -6.93900803       4.24092427
H        9.14899889      -5.92185324       2.79724229
H        8.69850973      -7.63048949       2.67361254
