178
Properties=species:S:1:pos:R:3 pbc="F F F"
C        1.79159094       1.79159094      -1.79159094
C        1.22983725       2.86334888      -2.48356621
C        2.03599323       3.66237236      -3.29959173
C        3.40060291       3.38152109      -3.43093638
C        3.96413653       2.32328943      -2.70255641
C        3.15530284       1.52019544      -1.89360699
C        4.22602394       4.25099785      -4.31456624
O        3.95742156       5.44945702      -4.38732751
C        5.39942147       3.71449815      -5.06596620
C        5.36855258       2.38872866      -5.53030221
C        6.49584467       1.83214987      -6.12273431
O        6.39962427       0.52211572      -6.51386452
C        7.50282232       0.13476525      -7.34348840
C        8.81241307       0.65670416      -6.77645186
O        8.82002674       2.08876504      -6.78267824
C        7.65513158       2.59332601      -6.26334883
C        7.66898912       3.93563142      -5.87895423
C        6.54333368       4.52053366      -5.28609883
N        6.50784398       5.88510750      -4.90428607
C        7.53461306       6.81528146      -4.93768941
O        8.69578113       6.58509871      -5.26418226
C        7.09188511       8.20274716      -4.48308612
H        6.34622898       8.13074261      -3.68606196
C        8.25586590       9.07540076      -4.05123883
Br       6.20607741       9.03125518      -6.01662641
H        0.16916933       3.08608150      -2.39424820
H        1.59426580       4.50101508      -3.83489538
H        5.02976082       2.11126148      -2.74540474
H        3.59849292       0.69187761      -1.34516819
H        4.47680363       1.77517685      -5.43223858
H        7.51755590      -0.95879686      -7.38450185
H        7.32500827       0.51465327      -8.35676582
H        9.65480458       0.31616291      -7.38612488
H        8.97265213       0.30986832      -5.74747803
H        8.58149255       4.49586196      -6.05415555
H        5.58415115       6.21861676      -4.61194427
H        8.99282913       9.20605451      -4.85222941
H        8.77590688       8.62223845      -3.19966117
H        7.91510943      10.07047872      -3.74673568
C       -1.79159094      -1.79159094      -1.79159094
C       -1.70700316      -1.69046902      -3.17928015
C       -2.52321715      -2.48977715      -3.98496302
C       -3.43062055      -3.38104408      -3.40139575
C       -3.48307026      -3.50213637      -2.00477574
C       -2.67233576      -2.69634629      -1.20042323
C       -4.28821506      -4.21119842      -4.29217455
O       -3.82729416      -4.60361219      -5.36329974
C       -5.66667098      -4.62177095      -3.89144389
C       -6.43582717      -3.75638577      -3.09537052
C       -7.67066608      -4.17006435      -2.60999842
O       -8.34269596      -3.28428623      -1.80862231
C       -9.69925756      -3.69279470      -1.58902370
C       -9.77215791      -5.18126054      -1.29215064
O       -9.32966794      -5.93560391      -2.42619817
C       -8.14937081      -5.44187410      -2.92056150
C       -7.42934712      -6.27726305      -3.77696459
C       -6.18610276      -5.87985212      -4.28401129
N       -5.43524889      -6.68704573      -5.17494293
C       -5.70641887      -7.97632988      -5.60483519
O       -6.64568445      -8.67164673      -5.22773093
C       -4.67739110      -8.49621516      -6.60411213
H       -3.67874311      -8.11968861      -6.36460182
C       -4.67042851     -10.01059218      -6.70148481
Br      -5.16562948      -7.74595430      -8.34237522
H       -1.01041544      -0.99601353      -3.64307005
H       -2.45102064      -2.41088368      -5.06827195
H       -4.14210913      -4.22077009      -1.52354782
H       -2.73165022      -2.78594692      -0.11794158
H       -6.08442729      -2.76020827      -2.83958351
H      -10.08413678      -3.11858931      -0.74053480
H      -10.28815494      -3.43172151      -2.47655091
H      -10.80327712      -5.47724936      -1.07656589
H       -9.15121365      -5.45069102      -0.42809380
H       -7.86946706      -7.23761268      -4.02443031
H       -4.61485431      -6.22301195      -5.57684591
H       -5.64917368     -10.40971711      -6.99222226
H       -4.41187931     -10.45310877      -5.73281842
H       -3.93728529     -10.35827480      -7.43676374
C       -1.79159094       1.79159094       1.79159094
C       -3.03832045       2.20951489       1.32891700
C       -3.83924814       3.02633268       2.13237650
C       -3.38729875       3.43295244       3.39280918
C       -2.14714588       2.97789693       3.86493956
C       -1.34388052       2.16810369       3.05712105
C       -4.26573680       4.30854829       4.21730295
O       -5.48489817       4.15585896       4.15344896
C       -3.70091214       5.32335247       5.15562122
C       -2.49537866       5.96569311       4.82651170
C       -1.89016289       6.82066348       5.73990247
O       -0.69686217       7.37804148       5.36070086
C       -0.30121664       8.43479495       6.24506437
C       -0.51757563       8.03342299       7.69457048
O       -1.91185906       7.82951821       7.95009275
C       -2.48468800       7.04686006       6.98025834
C       -3.72273297       6.47695631       7.28388549
C       -4.35521074       5.61767945       6.37707598
N       -5.62266714       5.03842272       6.63614768
C       -6.38264542       5.11225462       7.79268389
O       -6.04398107       5.66602692       8.83505411
C       -7.71981787       4.38793135       7.66996917
H       -7.62112901       3.49286799       7.04903654
C       -8.32264218       4.04111978       9.01874353
Br      -8.92386320       5.60478250       6.72531329
H       -3.39614632       1.90524320       0.34810950
H       -4.81405190       3.34698007       1.76914430
H       -1.79093049       3.23620595       4.85929061
H       -0.37662965       1.83339827       3.42551081
H       -2.01251368       5.80566860       3.86603678
H        0.75857037       8.63863755       6.06319370
H       -0.87353302       9.33440019       5.98849416
H       -0.16773780       8.82376235       8.36559222
H        0.02269598       7.11060214       7.94209232
H       -4.16403341       6.72356211       8.24391453
H       -6.03283600       4.54395211       5.83792407
H       -8.48040707       4.92988008       9.64082589
H       -7.65660785       3.36927589       9.57192276
H       -9.28882328       3.53856781       8.90493275
C        1.79159094      -1.79159094       1.79159094
C        3.11751015      -1.43186297       2.02737922
C        3.92677268      -2.24615769       2.82502695
C        3.41182013      -3.42468678       3.37655346
C        2.06634398      -3.75989774       3.16374064
C        1.26079916      -2.94911595       2.35919016
C        4.30619566      -4.26989915       4.21549322
O        5.15258843      -3.72144897       4.92016869
C        4.16219108      -5.75528013       4.26241462
C        3.73630024      -6.43969975       3.11158347
C        3.47801434      -7.80409655       3.16861795
O        3.02863498      -8.39198672       2.01498281
C        3.05316910      -9.82258037       2.10532650
C        2.51166354     -10.28686869       3.44703686
O        3.35570746      -9.82708403       4.50867852
C        3.64979767      -8.49489152       4.36711722
C        4.15010999      -7.83947218       5.49399260
C        4.42419855      -6.46675958       5.45900805
N        4.95567633      -5.76906500       6.57249621
C        5.19092567      -6.24345782       7.85320045
O        4.91673880      -7.36964824       8.25867506
C        5.81541573      -5.19426176       8.76804090
H        5.42781695      -4.19774855       8.53746805
C        5.62778721      -5.51545379      10.23926450
Br       7.72692174      -5.16929904       8.35773822
H        3.52982101      -0.52188552       1.59779249
H        4.96044443      -1.95945341       3.01027843
H        1.62433240      -4.64271445       3.61938019
H        0.22300325      -3.22579774       2.18673773
H        3.59514691      -5.92344721       2.16562493
H        2.43575467     -10.21579049       1.29171573
H        4.08421252     -10.16235163       1.94986321
H        2.48646194     -11.37991491       3.49071552
H        1.49419917      -9.91404377       3.62175554
H        4.31017052      -8.43389159       6.38744794
H        5.23808410      -4.80475301       6.37187507
H        6.05564794      -6.48865857      10.50680654
H        4.56116606      -5.54787340      10.48876704
H        6.09920443      -4.75845396      10.87466544
C       -0.00445707       0.01189536      -1.78238275
H       -0.66409135       0.67374010      -2.43557963
H        0.65740317      -0.63156657      -2.45157240
C       -0.90989263      -0.90692880      -0.91072765
C        0.90977584       0.90977584      -0.90977584
C       -0.00465871       1.77757030       0.00794375
H       -0.66225468       2.44313916      -0.64384735
H        0.64322798       2.43503045       0.67728295
C       -1.78241447       0.00034974      -0.00472694
H       -2.45427497      -0.65498947       0.64260836
H       -2.43311707       0.67328779      -0.65473579
C       -0.91132561       0.90220522       0.91563759
C       -0.01476271      -0.02253852       1.78660255
H       -0.67934791      -0.69751639       2.42135241
H        0.63392994       0.61504881       2.47327442
C        0.01484550      -1.77751727      -0.01636693
H        0.67870853      -2.42144646      -0.68295456
H       -0.62264859      -2.45592969       0.64226336
C        1.78714474       0.01002794       0.00389507
H        2.44202412       0.67113390       0.66197326
H        2.45385902      -0.65136977      -0.64189061
C        0.91606151      -0.90478549       0.90901405
