186
Properties=species:S:1:pos:R:3 pbc="F F F"
C        1.79159094       1.79159094      -1.79159094
C        1.22983725       2.86334888      -2.48356621
C        2.03599323       3.66237236      -3.29959173
C        3.40060291       3.38152109      -3.43093638
C        3.96413653       2.32328943      -2.70255641
C        3.15530284       1.52019544      -1.89360699
C        4.22602394       4.25099785      -4.31456624
O        3.95742156       5.44945702      -4.38732751
C        5.39942147       3.71449815      -5.06596620
C        5.36855258       2.38872866      -5.53030221
C        6.49584467       1.83214987      -6.12273431
O        6.39962427       0.52211572      -6.51386452
C        7.50282232       0.13476525      -7.34348840
C        8.81241307       0.65670416      -6.77645186
O        8.82002674       2.08876504      -6.78267824
C        7.65513158       2.59332601      -6.26334883
C        7.66898912       3.93563142      -5.87895423
C        6.54333368       4.52053366      -5.28609883
N        6.50784398       5.88510750      -4.90428607
C        7.53461306       6.81528146      -4.93768941
O        8.69578113       6.58509871      -5.26418226
C        7.09188511       8.20274716      -4.48308612
H        6.34622898       8.13074261      -3.68606196
C        8.25586590       9.07540076      -4.05123883
H        0.16916933       3.08608150      -2.39424820
H        1.59426580       4.50101508      -3.83489538
H        5.02976082       2.11126148      -2.74540474
H        3.59849292       0.69187761      -1.34516819
H        4.47680363       1.77517685      -5.43223858
H        7.51755590      -0.95879686      -7.38450185
H        7.32500827       0.51465327      -8.35676582
H        9.65480458       0.31616291      -7.38612488
H        8.97265213       0.30986832      -5.74747803
H        8.58149255       4.49586196      -6.05415555
H        5.58415115       6.21861676      -4.61194427
H        8.99282913       9.20605451      -4.85222941
H        8.77590688       8.62223845      -3.19966117
H        7.91510943      10.07047872      -3.74673568
C        6.43949159       8.81293972      -5.61253188
C        5.89311201       9.32397598      -6.55844271
Br       5.00966245      10.15027840      -8.08790052
C       -1.79159094      -1.79159094      -1.79159094
C       -1.23237379      -2.87147725      -2.47290129
C       -2.03841903      -3.67056557      -3.28897273
C       -3.40028109      -3.38172024      -3.43105905
C       -3.96160303      -2.31511003      -2.71326932
C       -3.15280762      -1.51201504      -1.90428261
C       -4.22561205      -4.25157574      -4.31440024
O       -3.96438478      -5.45220467      -4.37761665
C       -5.39057045      -3.71238936      -5.07692601
C       -5.34801763      -2.38991287      -5.54965295
C       -6.46777395      -1.82990832      -6.15304658
O       -6.36045084      -0.52311237      -6.55204130
C       -7.45567984      -0.13403639      -7.39135973
C       -8.77231136      -0.64373806      -6.82951967
O       -8.78924808      -2.07572935      -6.82649259
C       -7.63107526      -2.58444057      -6.29629059
C       -7.65620627      -3.92408550      -5.90328300
C       -6.53827447      -4.51239890      -5.29929280
N       -6.51418917      -5.87464876      -4.90839962
C       -7.54677976      -6.79833150      -4.94247267
O       -8.70427245      -6.56275016      -5.27803950
C       -7.11609606      -8.18564181      -4.47598052
H       -6.37517843      -8.11327275      -3.67458235
C       -8.28853881      -9.04787313      -4.04609355
H       -0.17378754      -3.10050673      -2.37520475
H       -1.59871654      -4.51554243      -3.81591730
H       -5.02551731      -2.09644872      -2.76446101
H       -3.59412553      -0.67726726      -1.36414594
H       -4.45293177      -1.78153892      -5.44974837
H       -7.46299588       0.95930679      -7.43957181
H       -7.27377483      -0.52168893      -8.40096360
H       -9.60847981      -0.30172538      -7.44688718
H       -8.93696020      -0.28914784      -5.80389044
H       -8.57119597      -4.47951000      -6.08080409
H       -5.59461541      -6.21223284      -4.60786393
H       -9.02112162      -9.17897130      -4.85102013
H       -8.81112664      -8.58578355      -3.20089630
H       -7.95628146     -10.04313139      -3.73291098
C       -6.46038298      -8.80743165      -5.59714856
C       -5.91122328      -9.32818064      -6.53612678
Br      -5.02327849     -10.17018772      -8.05437516
C       -1.79159094       1.79159094       1.79159094
C       -3.12878848       1.45396076       1.99400310
C       -3.93771914       2.26848186       2.79175633
C       -3.41085988       3.42537508       3.37682541
C       -2.05505592       3.73765398       3.19727247
C       -1.24963400       2.92685470       2.39261656
C       -4.30509022       4.27169675       4.21480106
O       -5.17606456       3.72658306       4.89155846
C       -4.13287965       5.75268124       4.29432494
C       -3.67062030       6.45091582       3.16604734
C       -3.38675496       7.80847308       3.25550081
O       -2.90285798       8.40980033       2.12294620
C       -2.90106763       9.83854548       2.24146286
C       -2.37755577      10.26541148       3.60260185
O       -3.25159802       9.80186298       4.63800903
C       -3.56892517       8.47887723       4.46400400
C       -4.10452603       7.81159503       5.56745371
C       -4.40479351       6.44560866       5.49956401
N       -4.97211022       5.73695614       6.58817119
C       -5.22362469       6.19070011       7.87325912
O       -4.93553606       7.30297544       8.30655060
C       -5.88684387       5.13645573       8.75441879
H       -5.51436604       4.13709545       8.51157204
C       -5.72248027       5.42483264      10.23519258
H       -3.55021213       0.56105730       1.53822959
H       -4.98033526       1.99897905       2.95086196
H       -1.60499977       4.60229953       3.67912774
H       -0.20334909       3.18600461       2.24618502
H       -3.52070114       5.95063438       2.21288355
H       -2.25984871      10.23521434       1.44819785
H       -3.92190630      10.20191712       2.07260394
H       -2.33174990      11.35666235       3.66868012
H       -1.37132682       9.86889297       3.78977869
H       -4.27075515       8.39142396       6.46933094
H       -5.26934225       4.78263267       6.36273726
H       -6.13640385       6.40097431      10.51373489
H       -4.66064631       5.43094265      10.50621754
H       -6.22133792       4.66509333      10.84589258
C       -7.28840545       5.15225343       8.42430431
C       -8.46221328       5.16548400       8.14783343
Br     -10.36016125       5.18687671       7.70080341
C        1.79159094      -1.79159094       1.79159094
C        3.13844143      -1.47567852       1.96263239
C        3.94705597      -2.29040573       2.76049562
C        3.40994402      -3.42600356       3.37711279
C        2.04539928      -3.71579514       3.22878796
C        1.24009200      -2.90498350       2.42402977
C        4.30399911      -4.27338944       4.21419948
O        5.19765216      -3.73239174       4.86416220
C        4.10578677      -5.74910339       4.32499566
C        3.60928833      -6.45932711       3.21896802
C        3.30194685      -7.80935448       3.33942752
O        2.78554139      -8.42237426       2.22768886
C        2.75940129      -9.84837428       2.37330038
C        2.25394842     -10.23981837       3.75180230
O        3.15595343      -9.77373833       4.76177827
C        3.49449733      -8.46047912       4.55682996
C        4.06326415      -7.78305035       5.63726026
C        4.38756796      -6.42450655       5.53789166
N        4.98852805      -5.70660006       6.60210944
C        5.25588463      -6.14103077       7.89066854
O        4.95541034      -7.23938158       8.35027018
C        5.95521181      -5.08333579       8.73917079
H        5.59686364      -4.08178366       8.48438624
C        5.81362802      -5.34092557      10.22795190
H        3.56769313      -0.59956999       1.48223590
H        4.99733928      -2.03781461       2.89502238
H        1.58854604      -4.56262702       3.73525399
H        0.18657437      -3.14691983       2.30204452
H        3.45065417      -5.97412328       2.25944161
H        2.09597591     -10.24750708       1.59977790
H        3.76991124     -10.23412655       2.19238957
H        2.18909666     -11.32858462       3.83941109
H        1.25900762      -9.82086708       3.95012378
H        4.23574867      -8.34903776       6.54672363
H        5.29914501      -4.76244911       6.35311805
H        6.21451671      -6.31938898      10.51720736
H        4.75719681      -5.32184473      10.51876496
H        6.33803837      -4.57954876      10.81473671
C        7.34972184      -5.13186131       8.38338004
C        8.51762399      -5.17250143       8.08540528
Br      10.40602298      -5.23821308       7.60360531
C       -0.00445707       0.01189536      -1.78238275
H       -0.66409135       0.67374010      -2.43557963
H        0.65740317      -0.63156657      -2.45157240
C       -0.90989263      -0.90692880      -0.91072765
C        0.90977584       0.90977584      -0.90977584
C       -0.00465871       1.77757030       0.00794375
H       -0.66225468       2.44313916      -0.64384735
H        0.64322798       2.43503045       0.67728295
C       -1.78241447       0.00034974      -0.00472694
H       -2.45427497      -0.65498947       0.64260836
H       -2.43311707       0.67328779      -0.65473579
C       -0.91132561       0.90220522       0.91563759
C       -0.01476271      -0.02253852       1.78660255
H       -0.67934791      -0.69751639       2.42135241
H        0.63392994       0.61504881       2.47327442
C        0.01484550      -1.77751727      -0.01636693
H        0.67870853      -2.42144646      -0.68295456
H       -0.62264859      -2.45592969       0.64226336
C        1.78714474       0.01002794       0.00389507
H        2.44202412       0.67113390       0.66197326
H        2.45385902      -0.65136977      -0.64189061
C        0.91606151      -0.90478549       0.90901405
