62
Properties=species:S:1:pos:R:3 pbc="F F F"
O        1.61360535       0.60586414      -3.87413032
C        1.50673875       1.85432166      -3.21576058
H        0.52176113       2.28141662      -3.43196938
O        2.50091215       2.74568393      -3.69923287
C        3.25419457       3.17509110      -2.64963829
O        4.17815993       3.96295591      -2.74137922
C        2.78114061       2.53883406      -1.41089924
C        1.76359747       1.76359747      -1.76359747
Br       3.53283876       2.84093062       0.23211568
H        2.21490489       0.03770888      -3.36658230
O       -3.11194856      -2.87832940      -0.10332186
C       -3.11838123      -2.14466081      -1.31377896
H       -3.77016569      -1.27307530      -1.19190614
O       -3.63140877      -2.94790328      -2.36651689
C       -2.70301243      -3.01595469      -3.35995684
O       -2.85648447      -3.61976652      -4.40624406
C       -1.50467462      -2.25924027      -2.96695902
C       -1.76359747      -1.76359747      -1.76359747
Br      -0.01426795      -2.10633126      -4.02105450
H       -2.26017329      -3.33649686      -0.02252592
O       -1.81042296       0.47887286       3.80430399
C       -1.59145326       1.75436909       3.23099864
H       -0.59856390       2.10706159       3.52952164
O       -2.56025073       2.67559609       3.70998214
C       -3.22169432       3.21029286       2.64693678
O       -4.10249185       4.04671266       2.73329054
C       -2.71111801       2.61884368       1.40091222
C       -1.76359747       1.76359747       1.76359747
Br      -3.34195012       3.06086256      -0.26115897
H       -2.41128199      -0.02107600       3.22899009
O        3.54064964      -2.32163109       0.23131908
C        3.21931252      -1.83604686       1.52146162
H        3.70712799      -0.86571824       1.66230089
O        3.70196672      -2.73161822       2.51224401
C        2.65848737      -3.12956238       3.29087422
O        2.75613987      -3.88701197       4.23934322
C        1.41643388      -2.51035822       2.80408181
C        1.76359747      -1.76359747       1.76359747
Br      -0.22293060      -2.79367312       3.57091118
H        2.81326965      -2.88451719      -0.07859076
C       -0.00445707       0.01189536      -1.78238275
H       -0.66409135       0.67374010      -2.43557963
H        0.65740317      -0.63156657      -2.45157240
C       -0.90989263      -0.90692880      -0.91072765
C        0.90977584       0.90977584      -0.90977584
C       -0.00465871       1.77757030       0.00794375
H       -0.66225468       2.44313916      -0.64384735
H        0.64322798       2.43503045       0.67728295
C       -1.78241447       0.00034974      -0.00472694
H       -2.45427497      -0.65498947       0.64260836
H       -2.43311707       0.67328779      -0.65473579
C       -0.91132561       0.90220522       0.91563759
C       -0.01476271      -0.02253852       1.78660255
H       -0.67934791      -0.69751639       2.42135241
H        0.63392994       0.61504881       2.47327442
C        0.01484550      -1.77751727      -0.01636693
H        0.67870853      -2.42144646      -0.68295456
H       -0.62264859      -2.45592969       0.64226336
C        1.78714474       0.01002794       0.00389507
H        2.44202412       0.67113390       0.66197326
H        2.45385902      -0.65136977      -0.64189061
C        0.91606151      -0.90478549       0.90901405
