178
Properties=species:S:1:pos:R:3 pbc="F F F"
C        1.79186329       1.79186329      -1.79186329
C        1.27261712       2.96121849      -2.33397689
C        2.08991756       3.75717145      -3.13215757
C        3.41478674       3.38552029      -3.38163895
F        4.12889063       4.21636453      -4.15205798
C        3.96379245       2.21314103      -2.84707418
C        3.11476935       1.42076145      -2.04347382
C        5.34479220       1.75686406      -3.03334064
N        5.74001239       0.55414826      -2.47199257
C        7.02066998       0.43480210      -2.71773007
C        7.94299692      -0.57953794      -2.33741724
C        9.24934348      -0.44523318      -2.63506977
C        9.74546977       0.72845212      -3.33814236
Br      11.56963793       0.84936533      -3.68534008
C        8.87304211       1.68019253      -3.70750203
N        7.51001641       1.52508056      -3.42725209
C        6.41398559       2.34337831      -3.71346958
N        6.53439942       3.50685172      -4.41820752
C        7.25673806       3.68908772      -5.62892687
C        7.43917407       2.64558897      -6.55030398
C        8.19281465       2.83789482      -7.70970982
C        8.76185168       4.08016419      -7.97180327
C        8.56125358       5.13667341      -7.08481713
C        7.80406425       4.95732797      -5.91602727
C        7.61775392       6.11391465      -4.97190454
H        0.24519902       3.25895375      -2.14147681
H        1.70458217       4.67629758      -3.56512940
H        3.49635588       0.50060135      -1.60094104
H        7.56925178      -1.44412229      -1.79999358
H        9.95723902      -1.21470496      -2.34032493
H        9.18087843       2.58208760      -4.21766471
H        5.71521731       4.11909155      -4.43918795
H        6.99393082       1.67019445      -6.37298507
H        8.33701769       2.01590919      -8.40591450
H        9.35738471       4.22880323      -8.86777453
H        9.00879875       6.10393418      -7.30677120
H        8.00458599       5.86161752      -3.97872650
H        6.55671542       6.37184987      -4.89572124
H        8.15247945       7.00537662      -5.31638070
C       -1.79186329      -1.79186329      -1.79186329
C       -1.85125852      -3.16006206      -1.55649194
C       -2.66306652      -3.95040158      -2.36577848
C       -3.40947401      -3.37405434      -3.39841762
F       -4.16903611      -4.20937083      -4.11890621
C       -3.36911723      -1.99809867      -3.65679176
C       -2.53636521      -1.21772737      -2.82491203
C       -4.13329151      -1.30376726      -4.69793813
N       -3.96565678       0.06112874      -4.86162518
C       -4.81610525       0.42957021      -5.78666711
C       -5.10207310       1.71836764      -6.31717075
C       -6.09374894       1.86994813      -7.21537927
C       -6.89204582       0.73548806      -7.65550649
Br      -8.26247076       1.03606729      -8.87793988
C       -6.61427523      -0.48282121      -7.16364023
N       -5.56173788      -0.64583340      -6.25477778
C       -5.06447320      -1.78686672      -5.61949357
N       -5.56510590      -3.03441609      -5.85993667
C       -5.83771184      -3.60308406      -7.13395676
C       -5.11748974      -3.23580037      -8.28177691
C       -5.43626646      -3.77438201      -9.52977082
C       -6.46940433      -4.69903924      -9.64537557
C       -7.17160971      -5.10092141      -8.51021300
C       -6.86012422      -4.56843123      -7.24886403
C       -7.64608673      -5.01235328      -6.04513310
H       -1.27729753      -3.61493043      -0.75340162
H       -2.72525015      -5.02226449      -2.19849451
H       -2.47376660      -0.14106305      -2.98306862
H       -4.51382814       2.56201744      -5.97331237
H       -6.31906042       2.85364389      -7.61744246
H       -7.18036748      -1.36167751      -7.43858574
H       -5.25547299      -3.78284368      -5.23518014
H       -4.29839978      -2.52476712      -8.21394344
H       -4.87877352      -3.46882525     -10.41124262
H       -6.72595601      -5.11107092     -10.61693555
H       -7.97379539      -5.82917052      -8.61653822
H       -8.12664852      -4.15298650      -5.56529499
H       -6.98721354      -5.51031278      -5.32676020
H       -8.43555747      -5.72051105      -6.31816826
C       -1.79186329       1.79186329       1.79186329
C       -2.84983234       1.22551364       2.49246653
C       -3.64212813       2.04126752       3.29585092
C       -3.37434538       3.41006104       3.39753956
F       -4.18233263       4.11449906       4.20048145
C       -2.31408919       4.00648186       2.70343660
C       -1.52669663       3.15956769       1.89274029
C       -1.94353854       5.42373395       2.76772441
N       -0.88869530       5.88148715       1.99597077
C       -0.72404270       7.14298536       2.30617410
C        0.23837740       8.08726843       1.85198517
C        0.26840473       9.32412150       2.38346331
C       -0.66610062       9.71910228       3.42686135
Br      -0.53834085      11.43811049       4.12789200
C       -1.58209930       8.83156000       3.84707737
N       -1.63473401       7.55638716       3.27122790
C       -2.48577862       6.47420448       3.51085039
N       -3.51712257       6.53874281       4.40359329
C       -4.47041418       7.58714894       4.51718954
C       -4.84874229       8.37085352       3.41547121
C       -5.75196814       9.42513118       3.56331997
C       -6.30124468       9.70111226       4.81146220
C       -5.96315058       8.91075799       5.90883555
C       -5.05739420       7.84638071       5.77364458
C       -4.70236661       7.02083209       6.98037441
H       -3.06193353       0.16188222       2.42181383
H       -4.47378255       1.61894170       3.85328491
H       -0.68715009       3.57524446       1.33550372
H        0.94191971       7.78162548       1.08541730
H        1.00620683      10.04540965       2.04365617
H       -2.29284205       9.05856096       4.62922773
H       -3.98204060       5.65726058       4.63419562
H       -4.44234799       8.16623166       2.42853069
H       -6.02357428      10.03179725       2.70346985
H       -6.99578760      10.52749960       4.93067528
H       -6.40553318       9.13634030       6.87763064
H       -3.62316511       7.05797909       7.16378581
H       -5.01172262       5.98153865       6.83102525
H       -5.20209909       7.38990128       7.88223640
C        1.79186329      -1.79186329       1.79186329
C        3.17323407      -1.74638901       1.64818943
C        3.96426517      -2.55269102       2.46229038
C        3.37604619      -3.39361583       3.41228395
F        4.21484090      -4.12548591       4.15698634
C        1.98690428      -3.45824180       3.57886158
C        1.20549702      -2.63373756       2.73977003
C        1.28424944      -4.28868339       4.56206407
N       -0.10030552      -4.27756419       4.58889455
C       -0.45634805      -5.02929800       5.60025220
C       -1.74740655      -5.33326742       6.11501533
C       -1.86719356      -6.07181827       7.23455536
C       -0.69450103      -6.56572608       7.94083920
Br      -0.94720654      -7.55500257       9.49654731
C        0.52370819      -6.28875199       7.44827649
N        0.64745116      -5.54885802       6.26603988
C        1.77647782      -5.14718476       5.54717090
N        3.04289138      -5.49762955       5.91893773
C        3.48276000      -6.79567632       6.29631634
C        2.87874625      -7.96018939       5.79613137
C        3.29878754      -9.22272959       6.21890216
C        4.33857059      -9.33928890       7.13595965
C        4.97246580      -8.19431382       7.61596450
C        4.56108454      -6.91861518       7.19771977
C        5.25655256      -5.70188503       7.74513551
H        3.63813821      -1.09252796       0.91496341
H        5.04654496      -2.53194024       2.36752395
H        0.11956847      -2.64489646       2.83343334
H       -2.61668175      -4.94904006       5.59276477
H       -2.85126958      -6.30015726       7.63397132
H        1.43294250      -6.61298864       7.93469960
H        3.81144646      -5.02775088       5.43429947
H        2.07310954      -7.89428843       5.06971237
H        2.81122941     -10.11424728       5.83336469
H        4.65963056     -10.32011527       7.47421665
H        5.78787903      -8.30253913       8.32908597
H        4.53942511      -5.05000314       8.25550177
H        5.74135072      -5.14779645       6.93513936
H        6.02986813      -5.97259956       8.47176909
C       -0.00445707       0.01189536      -1.78238275
H       -0.66409135       0.67374010      -2.43557963
H        0.65740317      -0.63156657      -2.45157240
C       -0.90989263      -0.90692880      -0.91072765
C        0.90977584       0.90977584      -0.90977584
C       -0.00465871       1.77757030       0.00794375
H       -0.66225468       2.44313916      -0.64384735
H        0.64322798       2.43503045       0.67728295
C       -1.78241447       0.00034974      -0.00472694
H       -2.45427497      -0.65498947       0.64260836
H       -2.43311707       0.67328779      -0.65473579
C       -0.91132561       0.90220522       0.91563759
C       -0.01476271      -0.02253852       1.78660255
H       -0.67934791      -0.69751639       2.42135241
H        0.63392994       0.61504881       2.47327442
C        0.01484550      -1.77751727      -0.01636693
H        0.67870853      -2.42144646      -0.68295456
H       -0.62264859      -2.45592969       0.64226336
C        1.78714474       0.01002794       0.00389507
H        2.44202412       0.67113390       0.66197326
H        2.45385902      -0.65136977      -0.64189061
C        0.91606151      -0.90478549       0.90901405
