178
Properties=species:S:1:pos:R:3 pbc="F F F"
C        1.79252458       1.79252458      -1.79252458
C        1.64747137       3.17778981      -1.74533432
C        2.44912558       3.97901246      -2.55361499
C        3.37598673       3.38851176      -3.41631974
C        3.51837371       1.99140379      -3.48222393
C        2.73205423       1.19980723      -2.63658796
C        4.51142135       1.42761768      -4.39013281
N        5.64990604       2.15054225      -4.69271414
C        6.39496059       1.35627625      -5.42115412
C        7.69303973       1.54929295      -5.97183438
C        8.26843134       0.56953945      -6.69397934
C        7.58206030      -0.69118292      -6.93851601
Br       8.44324860      -1.98439938      -7.96463570
C        6.35820858      -0.87801365      -6.41901430
N        5.77033963       0.13635062      -5.65260782
C        4.53301415       0.17703043      -5.00904744
N        3.70762035      -0.90971974      -5.04907552
C        2.29721056      -0.95262504      -5.18472067
C        1.54251306       0.16340965      -5.57566250
C        0.14735965       0.11279002      -5.62739103
C       -0.52089676      -1.05833142      -5.28845438
C        0.20563182      -2.18097919      -4.90076646
C        1.60869007      -2.14021676      -4.83830110
C        2.34377115      -3.37928398      -4.39870993
H        0.92154922       3.63888074      -1.08086498
H        2.35781680       5.06102270      -2.51492576
H        3.99927696       4.02695158      -4.04040075
H        2.84485150       0.12004130      -2.63577834
H        8.19804804       2.49055949      -5.78543155
H        9.26161030       0.71224642      -7.10820207
H        5.79422396      -1.78630318      -6.57359480
H        4.10176078      -1.81375165      -5.28896045
H        2.03303073       1.09201026      -5.85642261
H       -0.41481878       0.99211689      -5.92758226
H       -1.60650553      -1.09681400      -5.32232218
H       -0.33178747      -3.08852138      -4.63497196
H        2.99904909      -3.15675203      -3.54952236
H        2.94023471      -3.77696784      -5.22719912
H        1.65378911      -4.16922535      -4.07984599
C       -1.79252458      -1.79252458      -1.79252458
C       -2.39671846      -1.24913851      -2.92473853
C       -3.20383773      -2.05379988      -3.72411541
C       -3.41584246      -3.38992491      -3.37505086
C       -2.82322881      -3.94259006      -2.22618255
C       -1.98401265      -3.13198542      -1.45245136
C       -3.06634848      -5.34714568      -1.91567768
N       -3.31096323      -6.24170065      -2.94049856
C       -3.37216458      -7.42302874      -2.37719765
C       -3.55190666      -8.71433806      -2.94792234
C       -3.57592427      -9.80163555      -2.15439031
C       -3.43380818      -9.68573434      -0.70985087
Br      -3.49842223     -11.23939270       0.31433001
C       -3.26196861      -8.46952786      -0.16771277
N       -3.21884529      -7.34235854      -0.99809424
C       -3.04403569      -5.99513720      -0.67991913
N       -2.84320124      -5.62154507       0.61777018
C       -3.34661016      -4.48974608       1.30705005
C       -4.38307905      -3.69447140       0.79596525
C       -4.80714984      -2.54140188       1.46101102
C       -4.20105406      -2.16129877       2.65312663
C       -3.17259984      -2.93586444       3.18304520
C       -2.73280397      -4.09384628       2.51987583
C       -1.60696057      -4.88666955       3.13043302
H       -2.23962849      -0.20795479      -3.19371166
H       -3.66786818      -1.64733211      -4.61856497
H       -4.04639809      -4.00919435      -4.01103686
H       -1.48107228      -3.53895374      -0.58064511
H       -3.65688919      -8.79285599      -4.02429390
H       -3.70521823     -10.78797411      -2.58886645
H       -3.16117811      -8.31735376       0.89701629
H       -2.54098293      -6.32260002       1.28661337
H       -4.88524718      -3.96751589      -0.12870053
H       -5.60775528      -1.93907688       1.04195180
H       -4.52598415      -1.26102417       3.16800567
H       -2.70587289      -2.62325329       4.11446308
H       -0.79056409      -5.01211197       2.41085665
H       -1.96885452      -5.87050463       3.44889317
H       -1.19007965      -4.38694188       4.01261177
C       -1.79252458       1.79252458       1.79252458
C       -1.76835049       1.62624837       3.17599664
C       -2.57662318       2.42800873       3.97712111
C       -3.41649929       3.37640816       3.38791079
C       -3.45924439       3.54047610       1.99228094
C       -2.61354223       2.75334191       1.20156529
C       -4.34373509       4.55533154       1.43010521
N       -4.64024708       5.68739542       2.16551993
C       -5.34551723       6.45502963       1.37184410
C       -5.87972836       7.75824639       1.57619231
C       -6.57842877       8.35891175       0.59460960
C       -6.81411103       7.69507321      -0.67979086
Br      -7.80776063       8.59069660      -1.97497231
C       -6.31006375       6.46644493      -0.87729945
N       -5.56781780       5.85212536       0.13935491
C       -4.94336442       4.60478447       0.17094314
N       -4.97926467       3.79629526      -0.92858380
C       -5.13515151       2.38887884      -0.99472416
C       -5.55400024       1.62368328       0.10390169
C       -5.62564679       0.23037093       0.03152299
C       -5.27906626      -0.42546975      -1.14437032
C       -4.86378893       0.31171025      -2.25008010
C       -4.78114232       1.71291024      -2.18727815
C       -4.31209386       2.45958608      -3.40848284
H       -1.12173719       0.88364667       3.63591108
H       -2.55558581       2.32009053       5.05808892
H       -4.04080819       3.99948561       4.02633549
H       -2.59480465       2.88211589       0.12375059
H       -5.70004754       8.24637574       2.52761580
H       -6.97997745       9.35598829       0.74609304
H       -6.45930047       5.91838429      -1.79616918
H       -5.19964084       4.20736676      -1.83003803
H       -5.84140226       2.10454594       1.03551540
H       -5.94734642      -0.34020412       0.89773806
H       -5.32844792      -1.50975548      -1.19968979
H       -4.59236180      -0.21613057      -3.16156812
H       -3.45672754       3.09863328      -3.16354141
H       -5.12556495       3.07428691      -3.80938588
H       -3.99164222       1.77667350      -4.20390597
C        1.79252458      -1.79252458       1.79252458
C        1.72661500      -3.17876927       1.66521123
C        2.52789973      -3.98035798       2.47349532
C        3.37457199      -3.39069616       3.41555009
C        3.43619467      -1.99381221       3.56199455
C        2.65267938      -1.19896527       2.71680477
C        4.34797506      -1.42982353       4.55137325
N        5.50719322      -2.10792574       4.87804347
C        6.16836958      -1.31717921       5.68684217
C        7.44460512      -1.47223221       6.29732973
C        7.92672395      -0.50503775       7.10018842
C        7.16016467       0.70278039       7.37200910
Br       7.89414044       1.98071081       8.51005529
C        5.95665662       0.85382141       6.79637402
N        5.46631108      -0.14609835       5.94688865
C        4.26836584      -0.21578559       5.23494059
N        3.38343185       0.82256719       5.28611146
C        1.96764580       0.78429595       5.34595634
C        1.25616735      -0.38942139       5.63599647
C       -0.14045280      -0.41458466       5.61340884
C       -0.85357528       0.73695801       5.29975949
C       -0.17071844       1.91562060       5.01175812
C        1.23380127       1.95161618       5.02458932
C        1.92148462       3.24966651       4.69137899
H        1.06283593      -3.63982409       0.93863492
H        2.49844099      -5.06188525       2.37343903
H        3.99865500      -4.02913587       4.03883842
H        2.70574904      -0.11638017       2.77854191
H        8.00970393      -2.37417745       6.09015771
H        8.90328728      -0.61832101       7.56045051
H        5.33622715       1.72155959       6.96684801
H        3.71415128       1.73135189       5.59417019
H        1.78174670      -1.30521217       5.89450473
H       -0.66826363      -1.33723561       5.83590838
H       -1.93994243       0.71682581       5.27577089
H       -0.74268577       2.80714271       4.76449157
H        2.63143072       3.10871413       3.86910281
H        2.45111139       3.63171280       5.57106739
H        1.20663715       4.01888858       4.37666119
C       -0.00445707       0.01189536      -1.78238275
H       -0.66409135       0.67374010      -2.43557963
H        0.65740317      -0.63156657      -2.45157240
C       -0.90989263      -0.90692880      -0.91072765
C        0.90977584       0.90977584      -0.90977584
C       -0.00465871       1.77757030       0.00794375
H       -0.66225468       2.44313916      -0.64384735
H        0.64322798       2.43503045       0.67728295
C       -1.78241447       0.00034974      -0.00472694
H       -2.45427497      -0.65498947       0.64260836
H       -2.43311707       0.67328779      -0.65473579
C       -0.91132561       0.90220522       0.91563759
C       -0.01476271      -0.02253852       1.78660255
H       -0.67934791      -0.69751639       2.42135241
H        0.63392994       0.61504881       2.47327442
C        0.01484550      -1.77751727      -0.01636693
H        0.67870853      -2.42144646      -0.68295456
H       -0.62264859      -2.45592969       0.64226336
C        1.78714474       0.01002794       0.00389507
H        2.44202412       0.67113390       0.66197326
H        2.45385902      -0.65136977      -0.64189061
C        0.91606151      -0.90478549       0.90901405
