166
Properties=species:S:1:pos:R:3 pbc="F F F"
C        1.77692090       1.77692090      -1.77692090
C        2.23446220       3.02947014      -1.43909084
C        2.99578191       3.47836234      -2.54466302
C        2.95420952       2.47395814      -3.49313370
O        2.21251850       1.42742514      -3.01759256
C        3.59558013       2.54180156      -4.83273278
N        4.31519552       3.63765593      -5.24990392
C        4.67485154       3.36444977      -6.48231733
C        5.43289673       4.12000653      -7.41931218
C        5.58606228       3.67050646      -8.67972620
C        4.98091292       2.41956378      -9.11694646
Br       5.19675067       1.89941828     -10.88983331
C        4.29726398       1.68502309      -8.22495188
N        4.17363136       2.13220842      -6.90645443
C        3.57459671       1.54623998      -5.79622687
N        3.05599812       0.27935744      -5.79341963
C        3.73765348      -0.85160402      -6.32570293
C        5.14171190      -0.93738462      -6.28921237
C        5.81432463      -2.02048628      -6.85528138
C        5.09138171      -3.05307443      -7.44007593
C        3.69752802      -3.01085850      -7.43945291
C        3.00691191      -1.91784667      -6.88525592
C        1.50324348      -1.94161265      -6.90049537
H        2.04200998       3.55999943      -0.51681628
H        3.50959951       4.42434477      -2.65530217
H        5.87659269       5.05350858      -7.09173032
H        6.16820456       4.24323211      -9.39506103
H        3.82040587       0.74713013      -8.47913727
H        2.56179694      -0.00105043      -4.94109563
H        5.72931247      -0.15085880      -5.82169917
H        6.90026648      -2.05462333      -6.83791274
H        5.61091255      -3.89590080      -7.88842826
H        3.14603655      -3.83545631      -7.88664268
H        1.07397941      -0.93575424      -6.88137508
H        1.13363266      -2.50115708      -6.03553604
H        1.13556238      -2.42184108      -7.81418079
C       -1.77692090      -1.77692090      -1.77692090
C       -2.35500370      -1.38571602      -2.96230346
C       -3.08757574      -2.50401743      -3.42721409
C       -2.91575261      -3.51016211      -2.49538664
O       -2.10501445      -3.06519450      -1.48732725
C       -3.54331163      -4.85587686      -2.57092598
N       -4.36345295      -5.22853592      -3.61076651
C       -4.76799868      -6.44107252      -3.31254745
C       -5.62939410      -7.33230471      -4.01051663
C       -5.98762580      -8.50191706      -3.44675207
C       -5.51750298      -8.87934865      -2.12057154
Br      -6.10419345     -10.48802486      -1.39378395
C       -4.67373795      -8.05825220      -1.47524879
N       -4.26997793      -6.86379294      -2.07852335
C       -3.38011693      -5.88234098      -1.65460566
N       -2.61119539      -5.99037475      -0.52720506
C       -1.86422445      -7.15524241      -0.19228553
C       -1.31943528      -7.98168607      -1.19241830
C       -0.63068888      -9.15055408      -0.86787677
C       -0.44741632      -9.49638689       0.46542000
C       -0.93482128      -8.66275749       1.47145634
C       -1.64377388      -7.48884261       1.15829532
C       -2.12766406      -6.62400690       2.28954476
H       -2.26834519      -0.41659685      -3.43388365
H       -3.68407451      -2.57804603      -4.32712591
H       -5.98203162      -7.04504280      -4.99475717
H       -6.64109627      -9.18566834      -3.97973309
H       -4.28557013      -8.27316624      -0.48793691
H       -2.06462724      -5.16123843      -0.27597648
H       -1.43396250      -7.72364599      -2.24254435
H       -0.23953763      -9.78723052      -1.65678773
H        0.08265081     -10.40949286       0.72340203
H       -0.76835780      -8.93945993       2.51059481
H       -3.00107563      -6.02807220       2.00954757
H       -1.32637840      -5.95018976       2.60855654
H       -2.42994831      -7.24103699       3.14308321
C       -1.77692090       1.77692090       1.77692090
C       -2.11231743       1.50721630       3.08348946
C       -2.94509480       2.57293342       3.50077904
C       -3.07127203       3.42784284       2.42218649
O       -2.34766733       2.94221417       1.36765469
C       -3.89288974       4.66691027       2.41031446
N       -4.60946238       5.08577848       3.50751452
C       -5.24374735       6.16501937       3.11285193
C       -6.13282001       7.02893449       3.81046094
C       -6.75195123       8.02945916       3.15488454
C       -6.53941463       8.24770220       1.73030634
Br      -7.47596924       9.61861386       0.89141916
C       -5.67163676       7.45840433       1.07719785
N       -4.99847359       6.44640400       1.76741662
C       -4.02863952       5.54298743       1.34543662
N       -3.45262404       5.57220409       0.10394707
C       -2.95956484       6.75967685      -0.50748929
C       -2.42245612       7.80585973       0.26522381
C       -1.98546840       8.99080123      -0.32714990
C       -2.04894861       9.13697336      -1.70753876
C       -2.52966302       8.09082207      -2.49436266
C       -2.98715318       6.89627623      -1.90910825
C       -3.47683278       5.79973868      -2.81444525
H       -1.80396652       0.64958349       3.66527568
H       -3.41412154       2.70855439       4.46657051
H       -6.29303583       6.85946184       4.86933392
H       -7.42717664       8.69287748       3.68644358
H       -5.46536125       7.56167403       0.01963800
H       -2.81879133       4.79775867      -0.11470786
H       -2.34566784       7.70890512       1.34557988
H       -1.59699657       9.79577730       0.29078202
H       -1.71598859      10.06079696      -2.17334554
H       -2.55723049       8.21504546      -3.57505303
H       -4.19373609       5.14135093      -2.31548677
H       -2.62897904       5.20151624      -3.16248367
H       -3.99175998       6.22115502      -3.68501290
C        1.77692090      -1.77692090       1.77692090
C        1.73925854      -3.15158118       1.81218345
C        2.70671867      -3.54428811       2.76780049
C        3.27463043      -2.38506896       3.26160197
O        2.70868860      -1.30176011       2.64708749
C        4.31854086      -2.33262345       4.31895015
N        4.83072338      -3.46712935       4.90490264
C        5.67179810      -3.03472293       5.81509761
C        6.49562309      -3.74424113       6.73235122
C        7.20774693      -3.07169147       7.65685654
C        7.14909922      -1.61902504       7.74929890
Br       8.12211226      -0.77348337       9.09040663
C        6.40278193      -0.94374724       6.86070978
N        5.69653960      -1.64000371       5.87575091
C        4.90805497      -1.18492331       4.82408529
N        4.77080648       0.13665120       4.49461991
C        5.86707869       1.03817667       4.38285037
C        7.13226416       0.59442323       3.95569873
C        8.22036021       1.46515940       3.89391891
C        8.05353712       2.80351266       4.22835876
C        6.79524496       3.27292834       4.60380580
C        5.69279769       2.40294988       4.68447334
C        4.35909504       2.97547817       5.07850934
H        1.09409762      -3.79484290       1.22988518
H        2.96196717      -4.54909896       3.07818032
H        6.53185151      -4.82574463       6.66423546
H        7.84080643      -3.61094674       8.35474453
H        6.31130233       0.13476548       6.87013642
H        4.09093630       0.34690324       3.75780908
H        7.28434460      -0.44415910       3.67164914
H        9.19451091       1.09593706       3.58498204
H        8.89964873       3.48452682       4.18831811
H        6.67792595       4.32717363       4.84647060
H        3.70780340       2.22679301       5.53858986
H        3.85832453       3.38686717       4.19655426
H        4.48693893       3.77539432       5.81635749
C       -0.00445707       0.01189536      -1.78238275
H       -0.66409135       0.67374010      -2.43557963
H        0.65740317      -0.63156657      -2.45157240
C       -0.90989263      -0.90692880      -0.91072765
C        0.90977584       0.90977584      -0.90977584
C       -0.00465871       1.77757030       0.00794375
H       -0.66225468       2.44313916      -0.64384735
H        0.64322798       2.43503045       0.67728295
C       -1.78241447       0.00034974      -0.00472694
H       -2.45427497      -0.65498947       0.64260836
H       -2.43311707       0.67328779      -0.65473579
C       -0.91132561       0.90220522       0.91563759
C       -0.01476271      -0.02253852       1.78660255
H       -0.67934791      -0.69751639       2.42135241
H        0.63392994       0.61504881       2.47327442
C        0.01484550      -1.77751727      -0.01636693
H        0.67870853      -2.42144646      -0.68295456
H       -0.62264859      -2.45592969       0.64226336
C        1.78714474       0.01002794       0.00389507
H        2.44202412       0.67113390       0.66197326
H        2.45385902      -0.65136977      -0.64189061
C        0.91606151      -0.90478549       0.90901405
