162
Properties=species:S:1:pos:R:3 pbc="F F F"
C        1.78186368       1.78186368      -1.78186368
C        2.93630086       1.34236963      -2.37857640
C        3.54813503       2.38378408      -3.13845493
C        2.83017265       3.56536842      -3.08559312
S        1.42154824       3.40226331      -2.12107506
S        3.09082409       5.15944304      -3.82212366
O        3.18719339       6.08413375      -2.71670498
O        4.18114277       4.95647602      -4.75357236
N        1.67312025       5.52265306      -4.70226950
C        1.73623825       6.77368350      -5.41613533
C        2.45197435       6.82442676      -6.61890180
C        2.52403924       8.04425828      -7.25800756
N        3.13918768       8.39857026      -8.46540219
C        3.84441877       7.50149184      -9.33444610
C        2.93911327       9.77736578      -8.70074057
O        3.33307315      10.42517193      -9.65693873
N        2.18468960      10.25331609      -7.60531070
C        1.76068117      11.61017175      -7.41433001
C        1.92998101       9.19277701      -6.72794120
C        1.22715445       9.17312758      -5.54250430
C        1.12971922       7.94238179      -4.88535733
H        3.33048407       0.33778819      -2.28342976
H        4.46911345       2.28238205      -3.70167856
H        0.89224772       5.51770533      -4.03963874
H        2.92669142       5.94022803      -7.02872492
H        4.22082151       8.03709246     -10.21050192
H        3.16376592       6.71226345      -9.66723821
H        4.68786590       7.06110418      -8.79547934
H        0.67124079      11.64079071      -7.32200880
H        2.06466893      12.22825532      -8.26334620
H        2.22038880      12.00543475      -6.50370521
H        0.76598238      10.06822879      -5.14311479
C        0.36527808       7.88918458      -3.66617736
C       -0.27494138       7.84463192      -2.64511414
Br      -1.31012209       7.77259403      -0.99414126
C       -1.78186368      -1.78186368      -1.78186368
C       -2.79151933      -1.29374732      -2.57198023
C       -3.44263647      -2.34796797      -3.27976960
C       -2.89716460      -3.58755510      -2.99641449
S       -1.60071307      -3.46353377      -1.88063978
S       -3.27785585      -5.22352830      -3.57100663
O       -3.62237905      -5.97749441      -2.38815867
O       -4.21665959      -5.01969526      -4.65483630
N       -1.82777965      -5.86111225      -4.20915090
C       -1.97154651      -7.17926948      -4.77524109
C       -2.54344702      -7.30429457      -6.04756132
C       -2.70058945      -8.58087527      -6.54484036
N       -3.21280954      -9.01704115      -7.77330945
C       -3.68851464      -8.16627674      -8.82556534
C       -3.16971654     -10.42862080      -7.81888228
O       -3.53185366     -11.14637517      -8.73695498
N       -2.61648923     -10.84072902      -6.58609814
C       -2.39946463     -12.20065125      -6.18506705
C       -2.32807964      -9.71084237      -5.81177721
C       -1.77096563      -9.61721054      -4.55461017
C       -1.58950268      -8.33045493      -4.03750072
H       -3.05863643      -0.24651084      -2.64655475
H       -4.27075120      -2.21537612      -3.96704674
H       -1.13515301      -5.85969642      -3.45474237
H       -2.84713155      -6.43259322      -6.61591959
H       -4.02791338      -8.76506649      -9.67543602
H       -2.87611271      -7.51189017      -9.15526470
H       -4.52352691      -7.56410877      -8.45681373
H       -1.34160472     -12.34495836      -5.94747722
H       -2.68154119     -12.88548959      -6.98923967
H       -3.00955916     -12.41685588      -5.30311371
H       -1.48083956     -10.49944643      -3.99703997
C       -0.97123095      -8.20650328      -2.74290578
C       -0.45342838      -8.10269378      -1.65868252
Br       0.38381459      -7.93484259       0.09441480
C       -1.78186368       1.78186368       1.78186368
C       -2.51762643       2.83622168       1.30339877
C       -3.24004743       3.47521979       2.35510681
C       -3.02147111       2.87648831       3.58317478
S       -1.94823227       1.54536648       3.45128786
S       -3.64160441       3.22007587       5.21071051
O       -2.47565549       3.49447392       6.01790272
O       -4.68356634       4.20438244       5.00324237
N       -4.35321847       1.77270363       5.77212069
C       -4.96160543       1.89054604       7.07390561
C       -6.21672413       2.50372337       7.17485542
C       -6.75440102       2.63387724       8.43802682
N       -7.97917511       3.17490134       8.84908369
C       -8.98230269       3.71832010       7.97973393
C       -8.07769778       3.08384877      10.25567307
O       -9.00802815       3.45375025      10.95340541
N       -6.88100085       2.47185963      10.69045591
C       -6.53773044       2.19262570      12.05482680
C       -6.07660896       2.19533879       9.57875148
C       -4.83724877       1.59637689       9.50916067
C       -4.28025170       1.44156847       8.23563816
H       -2.54450322       3.14257090       0.26462789
H       -3.89246078       4.33200694       2.22870634
H       -3.62410348       1.05349768       5.77199064
H       -6.74186624       2.85842779       6.29535033
H       -9.84097931       4.06721124       8.56022533
H       -9.31629809       2.94201895       7.28495054
H       -8.56267270       4.55999959       7.42177712
H       -6.34293908       1.12238017      12.16872105
H       -7.35592396       2.47957307      12.72077342
H       -5.64332662       2.76215511      12.32404703
H       -4.32278798       1.25523629      10.39930169
C       -3.00455802       0.78122921       8.13485279
C       -1.93616456       0.22819508       8.05044504
Br      -0.20866270      -0.66601434       7.91396484
C        1.78186368      -1.78186368       1.78186368
C        1.28702883      -2.63324169       2.73697637
C        2.34295539      -3.32454759       3.40287105
C        3.59056951      -2.96817969       2.92238499
S        3.47218127      -1.80443533       1.66827002
S        5.23259321      -3.49141154       3.34838604
O        5.92113163      -2.29455559       3.77234490
O        5.03687708      -4.62143780       4.23287627
N        5.95506181      -4.04109179       1.90188920
C        7.28908833      -4.55871571       2.07825303
C        7.44456424      -5.84799237       2.60274630
C        8.73362645      -6.29918069       2.79349794
N        9.20027408      -7.52950544       3.27338061
C        8.37622932      -8.63468594       3.66944145
C       10.61310093      -7.51579457       3.28832413
O       11.35379906      -8.41845262       3.64293214
N       10.99474781      -6.24494322       2.80362537
C       12.34415197      -5.78012860       2.66090236
C        9.84572295      -5.50566574       2.49931054
C        9.72162717      -4.23086660       1.99029256
C        8.42255592      -3.75926512       1.77563730
H        0.23390134      -2.76157535       2.95622533
H        2.20605330      -4.05111932       4.19600144
H        5.94983538      -3.25869296       1.24106346
H        6.58610630      -6.46367201       2.84586605
H        8.99620238      -9.47313189       3.99908162
H        7.76996580      -8.95599154       2.81731024
H        7.72553253      -8.32643102       4.49248586
H       12.52114315      -5.49225677       1.62064038
H       13.05041880      -6.56702858       2.93882306
H       12.49781182      -4.91676086       3.31495608
H       10.59050748      -3.62610273       1.76071574
C        8.26909266      -2.44574361       1.20580375
C        8.14056717      -1.34566935       0.72856815
Br       7.93275234       0.43305769      -0.04308145
C       -0.00445707       0.01189536      -1.78238275
H       -0.66409135       0.67374010      -2.43557963
H        0.65740317      -0.63156657      -2.45157240
C       -0.90989263      -0.90692880      -0.91072765
C        0.90977584       0.90977584      -0.90977584
C       -0.00465871       1.77757030       0.00794375
H       -0.66225468       2.44313916      -0.64384735
H        0.64322798       2.43503045       0.67728295
C       -1.78241447       0.00034974      -0.00472694
H       -2.45427497      -0.65498947       0.64260836
H       -2.43311707       0.67328779      -0.65473579
C       -0.91132561       0.90220522       0.91563759
C       -0.01476271      -0.02253852       1.78660255
H       -0.67934791      -0.69751639       2.42135241
H        0.63392994       0.61504881       2.47327442
C        0.01484550      -1.77751727      -0.01636693
H        0.67870853      -2.42144646      -0.68295456
H       -0.62264859      -2.45592969       0.64226336
C        1.78714474       0.01002794       0.00389507
H        2.44202412       0.67113390       0.66197326
H        2.45385902      -0.65136977      -0.64189061
C        0.91606151      -0.90478549       0.90901405
