113
Properties=species:S:1:pos:R:3 pbc="F F F"
C        0.00000000       0.00000000       0.00000000
C        0.88201248       0.88201248      -0.88201248
C        1.51103377       0.33622151      -1.99751299
C        2.31929154       1.14316923      -2.79878129
C        2.48858324       2.49669722      -2.49275383
C        1.83193322       3.04817207      -1.38836229
C        1.04133407       2.23020754      -0.56974639
C        1.90054083       4.49937234      -1.04139302
O        1.70991783       4.82762523       0.13193550
C        2.12387182       5.55170640      -2.10784370
Cl       3.88806497       5.81726658      -2.23479898
C        1.50570235       5.28602520      -3.46804987
O        2.16275497       5.25170639      -4.50966175
C        0.02778227       5.04583638      -3.57393630
C       -0.85303721       5.19803128      -2.49470986
C       -2.21152427       4.90260702      -2.64926226
C       -2.70498154       4.47666331      -3.88254483
C       -1.83621405       4.35030033      -4.96231836
Br      -2.50357423       3.79175282      -6.64023911
C       -0.47832293       4.62841421      -4.81598069
H        1.38330280      -0.71479944      -2.24862056
H        2.82104557       0.71596840      -3.66557017
H        3.14197444       3.08493241      -3.13242315
H        0.54179826       2.64714972       0.30329100
H        1.70846526       6.50079485      -1.75102299
H       -0.52720934       5.54361681      -1.51772609
H       -2.89062147       5.00632956      -1.80351795
H       -3.76179212       4.25242158      -3.99058428
H        0.18839550       4.51736417      -5.66977857
C       -0.88201248      -0.88201248      -0.88201248
C       -1.15362011      -0.49871296      -2.19243521
C       -1.96286593      -1.30412461      -2.99425153
C       -2.48966542      -2.49729189      -2.49107698
C       -2.19089277      -2.89364495      -1.18392986
C       -1.39921218      -2.07049403      -0.37158180
C       -2.65123460      -4.18939759      -0.60067400
O       -2.75982696      -4.27081681       0.62503621
C       -2.90836075      -5.39756697      -1.47749420
Cl      -4.63227926      -5.35563212      -1.95221915
C       -2.00634529      -5.56747620      -2.68595593
O       -2.43497075      -5.65118782      -3.83796454
C       -0.51905141      -5.63405400      -2.49444953
C        0.08971714      -5.69566230      -1.23375877
C        1.48437400      -5.69853806      -1.12618096
C        2.28032551      -5.66332305      -2.27122906
C        1.67729095      -5.62875609      -3.52493949
Br       2.75160066      -5.60015013      -5.07986822
C        0.28866289      -5.61131255      -3.64342230
H       -0.74563825       0.42540042      -2.59688609
H       -2.18561871      -1.00093283      -4.01603260
H       -3.13072736      -3.08525894      -3.14334371
H       -1.17739161      -2.36204451       0.65377914
H       -2.79327038      -6.30011027      -0.86690244
H       -0.48045880      -5.74334247      -0.31033229
H        1.95431096      -5.72989895      -0.14363806
H        3.36175744      -5.66811386      -2.17485732
H       -0.16628545      -5.57706093      -4.63219186
C       -0.88201248       0.88201248       0.88201248
C       -1.24314834       2.15424279       0.44737714
C       -2.04528798       2.95909058       1.25686350
C       -2.49625172       2.48826729       2.49351528
C       -2.15567111       1.19895529       2.91384118
C       -1.32843017       0.40177714       2.11108069
C       -2.66080140       0.59659284       4.18391195
O       -1.99523572      -0.29886439       4.70923623
C       -3.98981481       1.01614986       4.77745725
Cl      -3.66783375       2.36364807       5.90864870
C       -5.09334774       1.36905199       3.79737769
O       -5.66867627       2.45847760       3.79696924
C       -5.51735471       0.36219165       2.76800859
C       -5.04929385      -0.95852450       2.74893459
C       -5.44234523      -1.82873210       1.72673189
C       -6.32001345      -1.39764405       0.73185721
C       -6.80651572      -0.09422137       0.76411029
Br      -8.01081466       0.48866125      -0.57105821
C       -6.41051688       0.78557674       1.76997834
H       -0.90219048       2.53010149      -0.51516804
H       -2.32004583       3.95868648       0.92385183
H       -3.10333790       3.15502795       3.10096415
H       -1.04251203      -0.59624001       2.43938495
H       -4.36736630       0.19539889       5.39751791
H       -4.37935716      -1.35292348       3.50769987
H       -5.06344784      -2.85011215       1.70589036
H       -6.61941763      -2.08307542      -0.05512848
H       -6.79559006       1.80415478       1.77579340
C        0.88201248      -0.88201248       0.88201248
C        1.65075742      -1.88899162       0.30501924
C        2.45209348      -2.69563591       1.11351268
C        2.49469439      -2.48800739       2.49533251
C        1.74372146      -1.45687511       3.06787101
C        0.91940248      -0.66444893       2.25743659
C        1.79536694      -1.12308009       4.52285916
O        0.82151588      -0.55807370       5.02601798
C        3.03492457      -1.40024195       5.34825541
Cl       2.85576809      -3.03656933       6.04779311
C        4.37100115      -1.24261291       4.64616336
O        5.20262011      -2.14864159       4.57286141
C        4.71573403       0.06712939       3.99895030
C        3.92757249       1.21832192       4.13045337
C        4.27805000       2.39109808       3.45339310
C        5.42539222       2.43220121       2.66103560
C        6.22357597       1.29760630       2.55043497
Br       7.78939539       1.35416449       1.49318679
C        5.87626578       0.11953828       3.20934447
H        1.62955871      -2.05735708      -0.76979187
H        3.04587840      -3.49094569       0.66576004
H        3.11758811      -3.15136367       3.09037823
H        0.31650894       0.12831198       2.69746002
H        3.04322103      -0.71433710       6.20272496
H        3.03453033       1.24862662       4.74822985
H        3.65385816       3.27948661       3.54485449
H        5.68809077       3.34900580       2.14212877
H        6.50864317      -0.76093180       3.10596327
