142
Properties=species:S:1:pos:R:3 pbc="F F F"
C        1.79191651       1.79191651      -1.79191651
C        2.42093779       1.24612554      -2.90741701
C        3.22919556       2.05307326      -3.70868532
C        3.39848727       3.40660124      -3.40265785
C        2.74183724       3.95807610      -2.29826631
C        1.95123810       3.14011156      -1.47965041
C        2.81044485       5.40927636      -1.95129705
O        2.61982186       5.73752926      -0.77796852
C        3.03377584       6.46161043      -3.01774773
Cl       4.79796899       6.72717060      -3.14470300
C        2.41560638       6.19592923      -4.37795389
O        3.07265899       6.16161041      -5.41956578
C        0.93768629       5.95574041      -4.48384032
C        0.05686682       6.10793530      -3.40461389
C       -1.30162024       5.81251105      -3.55916628
C       -1.79507751       5.38656733      -4.79244886
C       -0.92631003       5.26020436      -5.87222238
C        0.43158110       5.53831823      -5.72588471
H        2.29320682       0.19510459      -3.15852459
H        3.73094959       1.62587243      -4.57547419
H        4.05187847       3.99483644      -4.04232717
H        1.45170228       3.55705374      -0.60661302
H        2.61836928       7.41069887      -2.66092702
H        0.38269469       6.45352083      -2.42763011
H       -1.98071745       5.91623359      -2.71342198
H       -2.85188810       5.16232560      -4.90048831
H        1.09829953       5.42726819      -6.57968259
C       -1.43472775       4.83468383      -7.15051957
C       -1.86052759       4.47831040      -8.22109347
Br      -2.54900992       3.90208469      -9.95212091
C       -1.79191651      -1.79191651      -1.79191651
C       -1.66534724      -3.17694699      -1.73218611
C       -2.46927555      -3.97975967      -2.54191891
C       -3.40719206      -3.39955273      -3.40100157
C       -3.55187746      -2.00931336      -3.43698883
C       -2.72546178      -1.20347373      -2.64206456
C       -4.58236723      -1.31922694      -4.26942409
O       -4.36999336      -0.15365727      -4.61166901
C       -5.88811919      -1.99956255      -4.62545225
Cl      -5.64320983      -2.84319348      -6.18343929
C       -6.48010979      -2.92808728      -3.58129242
O       -6.73799401      -4.11208826      -3.80375291
C       -6.76873985      -2.40381996      -2.20470721
C       -6.65849145      -1.04971978      -1.86120478
C       -6.88796940      -0.63782230      -0.54426538
C       -7.25026425      -1.56584584       0.43217141
C       -7.38592113      -2.90713042       0.08693483
C       -7.14597187      -3.33076531      -1.21904686
H       -0.94217987      -3.64045526      -1.06420087
H       -2.36447343      -5.06291582      -2.50490696
H       -3.99983460      -4.06089197      -4.02831551
H       -2.81814604      -0.11918295      -2.67804005
H       -6.63899763      -1.22671127      -4.82428627
H       -6.39768245      -0.28199778      -2.58416539
H       -6.78526878       0.41353092      -0.27720025
H       -7.42779541      -1.23357790       1.45044750
H       -7.24996991      -4.38529362      -1.46998679
C       -7.77386395      -3.86568296       1.08907125
C       -8.09876606      -4.66847071       1.92836050
Br      -8.62410530      -5.96651061       3.28542022
C       -1.79191651       1.79191651       1.79191651
C       -1.69237894       1.70442366       3.17767775
C       -2.50213695       2.50816916       3.98064803
C       -3.40120691       3.40714852       3.39939093
C       -3.47764463       3.51322842       2.00730660
C       -2.68215675       2.68654027       1.20230306
C       -4.35547707       4.50244784       1.31309335
O       -4.72239956       4.24973610       0.16318397
C       -4.72863089       5.81628535       1.96821775
Cl      -6.25670406       5.55336028       2.85977826
C       -3.67678259       6.46040282       2.85230408
O       -3.87490860       6.74423699       4.03468959
C       -2.32276310       6.77087341       2.28363052
C       -2.01214359       6.63315878       0.92411364
C       -0.71317390       6.88598601       0.47089717
C        0.27719135       7.29877620       1.36235383
C       -0.03618455       7.46148942       2.70844274
C       -1.32361272       7.19880363       3.17336769
H       -0.99314130       1.01186178       3.64183291
H       -2.43382990       2.43367555       5.06479076
H       -4.02668927       4.00073487       4.06161794
H       -2.74913057       2.74892123       0.11731724
H       -4.96793614       6.54052207       1.18153696
H       -2.74773803       6.33277988       0.18332772
H       -0.47117808       6.76198170      -0.58422167
H        1.28120789       7.49398895       0.99814475
H       -1.54944634       7.32461435       4.23118962
C        0.97997220       7.90141003       3.62903783
C        1.83100348       8.26984354       4.40003622
Br       3.20704908       8.86556937       5.64667540
C        1.79191651      -1.79191651       1.79191651
C        1.94235998      -3.14244100       1.48967936
C        2.74515280      -3.94639308       2.29940826
C        3.40672296      -3.39861340       3.40241000
C        3.27661476      -2.03564330       3.68592159
C        2.44910583      -1.23515337       2.88674087
C        4.01119525      -1.36162252       4.79820050
O        3.52922544      -0.33137102       5.27472318
C        5.34898900      -1.88077352       5.28337147
Cl       5.02446969      -3.03347115       6.61190176
C        6.26524720      -2.48744014       4.23680216
O        6.70499696      -3.63576693       4.31307130
C        6.66404144      -1.67169403       3.04153155
C        6.35419844      -0.31206770       2.90314987
C        6.70758490       0.37406105       1.73653323
C        7.39045675      -0.28154001       0.71194192
C        7.72219992      -1.62503991       0.85887688
C        7.36264563      -2.32211968       2.01101873
H        1.43622930      -3.57937626       0.63123044
H        2.85562614      -5.00533534       2.07133473
H        4.00692338      -4.06440409       4.01771460
H        2.32684214      -0.17684203       3.11168487
H        5.89771800      -1.05047707       5.74180010
H        5.84046092       0.25261530       3.67600000
H        6.45050653       1.42705388       1.62548547
H        7.66116995       0.26235201      -0.18789213
H        7.62414977      -3.37491357       2.10618697
C        8.43981534      -2.30124651      -0.19058620
C        9.04081825      -2.86756954      -1.06951152
Br      10.01258914      -3.78326598      -2.49065943
C       -0.00445707       0.01189536      -1.78238275
H       -0.66409135       0.67374010      -2.43557963
H        0.65740317      -0.63156657      -2.45157240
C       -0.90989263      -0.90692880      -0.91072765
C        0.90977584       0.90977584      -0.90977584
C       -0.00465871       1.77757030       0.00794375
H       -0.66225468       2.44313916      -0.64384735
H        0.64322798       2.43503045       0.67728295
C       -1.78241447       0.00034974      -0.00472694
H       -2.45427497      -0.65498947       0.64260836
H       -2.43311707       0.67328779      -0.65473579
C       -0.91132561       0.90220522       0.91563759
C       -0.01476271      -0.02253852       1.78660255
H       -0.67934791      -0.69751639       2.42135241
H        0.63392994       0.61504881       2.47327442
C        0.01484550      -1.77751727      -0.01636693
H        0.67870853      -2.42144646      -0.68295456
H       -0.62264859      -2.45592969       0.64226336
C        1.78714474       0.01002794       0.00389507
H        2.44202412       0.67113390       0.66197326
H        2.45385902      -0.65136977      -0.64189061
C        0.91606151      -0.90478549       0.90901405
