134
Properties=species:S:1:pos:R:3 pbc="F F F"
C        1.79171907       1.79171907      -1.79171907
C        1.25191298       2.39656201      -2.92346891
C        2.05599762       3.21311094      -3.71841120
C        3.39886095       3.42090926      -3.38552084
C        3.94843108       2.79663425      -2.25930692
C        3.13058736       1.98558270      -1.45680342
C        5.37990961       2.94735164      -1.86065732
O        5.75751091       2.46425429      -0.79148274
C        6.35471868       3.68571552      -2.73837253
C        6.49786963       5.13297654      -2.34820571
O        5.82014073       5.99189747      -2.91282661
C        7.45170192       5.53451051      -1.26535658
C        7.62606594       6.90437735      -1.01213620
C        8.49697835       7.33934953      -0.00959684
C        9.20219651       6.40932853       0.75108021
C        9.03178134       5.04936191       0.50359316
Br       9.98532728       3.78590244       1.54023206
C        8.16439830       4.60588653      -0.49779349
H        0.20879238       2.24455939      -3.18954623
H        1.63420837       3.69519869      -4.59784080
H        3.98124624       4.08519943      -4.01823258
H        3.54084049       1.50571605      -0.56986036
H        6.07196019       3.62498824      -3.79357477
H        7.32403123       3.17667397      -2.70636978
H        7.08009870       7.64547175      -1.59442955
H        8.62098008       8.40311573       0.17975417
H        9.87463101       6.75148860       1.53377212
H        8.05027415       3.53657433      -0.64499315
C       -1.79171907      -1.79171907      -1.79171907
C       -3.14529672      -1.49696838      -1.92967880
C       -3.94469657      -2.29544025      -2.74738294
C       -3.39319441      -3.38979008      -3.42230655
C       -2.03662638      -3.69968605      -3.26805982
C       -1.23503430      -2.88493835      -2.45300084
C       -1.38676931      -4.86914241      -3.93200684
O       -0.16497519      -5.00497365      -3.84329910
C       -2.20012778      -5.86849666      -4.71018229
C       -2.24473938      -5.55257070      -6.18174180
O       -3.18195853      -4.90046823      -6.64243806
C       -1.14672353      -6.01561128      -7.08923419
C       -1.28749373      -5.78770094      -8.46738482
C       -0.29283698      -6.19070624      -9.36238150
C        0.85360204      -6.82509237      -8.88895450
C        0.99758012      -7.05266136      -7.52246884
Br       2.55701595      -7.90933641      -6.87867720
C        0.00737050      -6.65451296      -6.62093585
H       -3.58348028      -0.64701141      -1.41240630
H       -5.00069237      -2.06148692      -2.86506859
H       -4.04695278      -3.96872839      -4.06899707
H       -0.17539102      -3.10543483      -2.33559106
H       -3.22265481      -5.94027940      -4.32758899
H       -1.79518149      -6.87187883      -4.54001466
H       -2.17531739      -5.28975713      -8.85492548
H       -0.41149526      -6.00538105     -10.42746532
H        1.62765048      -7.13219998      -9.58779799
H        0.16896572      -6.83747795      -5.56332939
C       -1.79171907       1.79171907       1.79171907
C       -1.72311026       1.67183352       3.17700012
C       -2.51887403       2.48887843       3.97976730
C       -3.38553518       3.42091792       3.39883795
C       -3.47078376       3.52807546       2.00551303
C       -2.65840311       2.71106049       1.20350989
C       -4.39480798       4.47737034       1.31574024
O       -4.32469106       4.59746401       0.09109286
C       -5.39438048       5.28930677       2.09511948
C       -4.87514112       6.65863897       2.44527180
O       -4.33722032       6.85188936       3.53575513
C       -4.99645488       7.78719828       1.46791585
C       -4.59375808       9.06681725       1.88200415
C       -4.67675963      10.15719556       1.01196953
C       -5.16243961       9.97967503      -0.28166981
C       -5.56249661       8.71182404      -0.69677056
Br      -6.21703667       8.46943071      -2.45546972
C       -5.48441204       7.61660715       0.16705912
H       -1.05069631       0.95320744       3.63899424
H       -2.45995243       2.40442729       5.06286815
H       -3.96755442       4.05460199       4.06252184
H       -2.70354758       2.79395096       0.11891837
H       -5.70171668       4.77704792       3.01175859
H       -6.32457848       5.36120351       1.52129299
H       -4.20803316       9.22346097       2.88850587
H       -4.35834231      11.14303669       1.34296264
H       -5.22034344      10.82935316      -0.95734911
H       -5.79184272       6.64403603      -0.20403713
C        1.79171907      -1.79171907       1.79171907
C        3.16805484      -1.81955449       1.58433457
C        3.97216121      -2.61448426       2.40087429
C        3.40105808      -3.38425504       3.41997793
C        2.01488877      -3.37324597       3.61623752
C        1.21254772      -2.56181118       2.79861459
C        1.33301320      -4.19212734       4.66277803
O        0.12506780      -4.03640697       4.85177316
C        2.10120085      -5.18887986       5.48872602
C        2.56923410      -4.61154409       6.79827370
O        3.70033297      -4.13407562       6.89045622
C        1.66082304      -4.60155773       7.98918823
C        2.17975356      -4.14982808       9.21299784
C        1.37810601      -4.11087242      10.35694629
C        0.04880218      -4.52231013      10.28933252
C       -0.47022203      -4.97063541       9.07713670
Br      -2.27712842      -5.52432925       8.98379683
C        0.32463744      -5.01438238       7.92905849
H        3.62267106      -1.22276602       0.79746092
H        5.04918254      -2.63042947       2.24763586
H        4.06774174      -3.96840139       4.04853512
H        0.13477234      -2.53214083       2.94950374
H        2.96284643      -5.58477592       4.94290084
H        1.47811248      -6.07428014       5.65468237
H        3.21566648      -3.82077956       9.28355396
H        1.79031784      -3.75547980      11.29854400
H       -0.57318670      -4.48535248      11.18018171
H       -0.12600685      -5.35545570       7.00239277
C       -0.00445707       0.01189536      -1.78238275
H       -0.66409135       0.67374010      -2.43557963
H        0.65740317      -0.63156657      -2.45157240
C       -0.90989263      -0.90692880      -0.91072765
C        0.90977584       0.90977584      -0.90977584
C       -0.00465871       1.77757030       0.00794375
H       -0.66225468       2.44313916      -0.64384735
H        0.64322798       2.43503045       0.67728295
C       -1.78241447       0.00034974      -0.00472694
H       -2.45427497      -0.65498947       0.64260836
H       -2.43311707       0.67328779      -0.65473579
C       -0.91132561       0.90220522       0.91563759
C       -0.01476271      -0.02253852       1.78660255
H       -0.67934791      -0.69751639       2.42135241
H        0.63392994       0.61504881       2.47327442
C        0.01484550      -1.77751727      -0.01636693
H        0.67870853      -2.42144646      -0.68295456
H       -0.62264859      -2.45592969       0.64226336
C        1.78714474       0.01002794       0.00389507
H        2.44202412       0.67113390       0.66197326
H        2.45385902      -0.65136977      -0.64189061
C        0.91606151      -0.90478549       0.90901405
