142
Properties=species:S:1:pos:R:3 pbc="F F F"
C        1.79171907       1.79171907      -1.79171907
C        1.25191298       2.39656201      -2.92346891
C        2.05599762       3.21311094      -3.71841120
C        3.39886095       3.42090926      -3.38552084
C        3.94843108       2.79663425      -2.25930692
C        3.13058736       1.98558270      -1.45680342
C        5.37990961       2.94735164      -1.86065732
O        5.75751091       2.46425429      -0.79148274
C        6.35471868       3.68571552      -2.73837253
C        6.49786963       5.13297654      -2.34820571
O        5.82014073       5.99189747      -2.91282661
C        7.45170192       5.53451051      -1.26535658
C        7.62606594       6.90437735      -1.01213620
C        8.49697835       7.33934953      -0.00959684
C        9.20219651       6.40932853       0.75108021
C        9.03178134       5.04936191       0.50359316
C        8.16439830       4.60588653      -0.49779349
H        0.20879238       2.24455939      -3.18954623
H        1.63420837       3.69519869      -4.59784080
H        3.98124624       4.08519943      -4.01823258
H        3.54084049       1.50571605      -0.56986036
H        6.07196019       3.62498824      -3.79357477
H        7.32403123       3.17667397      -2.70636978
H        7.08009870       7.64547175      -1.59442955
H        8.62098008       8.40311573       0.17975417
H        9.87463101       6.75148860       1.53377212
H        8.05027415       3.53657433      -0.64499315
C        9.75747023       4.08781569       1.29251932
C       10.36523468       3.28252072       1.95324497
Br      11.34793839       1.98042687       3.02158248
C       -1.79171907      -1.79171907      -1.79171907
C       -2.79702986      -2.56166100      -1.21325304
C       -3.61013742      -3.35449046      -2.02289189
C       -3.41562979      -3.38159421      -3.40806705
C       -2.39163122      -2.62385055      -3.98889049
C       -1.58450289      -1.81883791      -3.16963269
C       -2.10572940      -2.62734645      -5.45484272
O       -1.26732907      -1.84291344      -5.90300543
C       -2.83218720      -3.56321613      -6.38340340
C       -4.04014404      -2.92371205      -7.01519579
O       -5.15087621      -3.06954304      -6.50444557
C       -3.89745160      -2.09762752      -8.25648988
C       -5.06543967      -1.61173799      -8.86540183
C       -4.99498555      -0.82963106     -10.02130811
C       -3.75595609      -0.52422323     -10.58026550
C       -2.59470799      -1.00372587      -9.97911623
C       -2.65612691      -1.78762224      -8.82432917
H       -2.95904260      -2.54554169      -0.13831371
H       -4.40311138      -3.94946848      -1.57466801
H       -4.08880727      -3.99304585      -4.00282512
H       -0.79397865      -1.21307148      -3.60936678
H       -3.13838630      -4.48050678      -5.87163012
H       -2.13621398      -3.92116030      -7.14970070
H       -6.04246805      -1.83740339      -8.44012856
H       -5.90655356      -0.45586182     -10.48192626
H       -3.70499095       0.08907585     -11.47643239
H       -1.72519795      -2.12608668      -8.38055699
C       -1.31372609      -0.68468609     -10.55435442
C       -0.24090374      -0.41749028     -11.03611641
Br       1.49375925       0.01454276     -11.81508480
C       -1.79171907       1.79171907       1.79171907
C       -1.20425057       2.65954888       2.70814445
C       -2.01188657       3.47415607       3.50147712
C       -3.40472147       3.41797216       3.38259742
C       -3.99745249       2.53075210       2.47616766
C       -3.17851893       1.72221384       1.67224072
C       -5.47627771       2.39427430       2.31736655
O       -5.91798266       1.68005943       1.41520585
C       -6.42398714       3.12193125       3.23288835
C       -6.87570937       4.44040946       2.66293305
O       -6.28309819       5.47635087       2.96541575
C       -8.03565472       4.49886571       1.71704857
C       -8.48376435       5.76145090       1.29736424
C       -9.55694069       5.87890321       0.41008082
C      -10.19299134       4.73522637      -0.06777288
C       -9.75131770       3.48067987       0.34555251
C       -8.68025310       3.35422500       1.23360022
H       -0.12285159       2.71366817       2.80637823
H       -1.55524894       4.16062051       4.21137842
H       -3.99400924       4.08890485       4.00176416
H       -3.62543932       1.03830761       0.95266997
H       -5.98108390       3.29036745       4.21907184
H       -7.28254723       2.47666131       3.44786644
H       -7.99603532       6.66622540       1.65773928
H       -9.89274061       6.86233767       0.08926336
H      -11.02398889       4.83054220      -0.76218360
H       -8.35936508       2.35651564       1.51596090
C      -10.40595362       2.29831360      -0.15150062
C      -10.95421120       1.30808185      -0.56778262
Br     -11.84069733      -0.29303915      -1.24087540
C        1.79171907      -1.79171907       1.79171907
C        2.62475548      -1.20613851       2.74104991
C        3.41775545      -2.01494695       3.55481736
C        3.38194931      -3.40667612       3.41666561
C        2.56022738      -3.99585312       2.44829176
C        1.75569155      -3.17670238       1.64057956
C        2.49388543      -5.47087267       2.22316047
O        1.65842273      -5.91915670       1.43566851
C        3.42141043      -6.40773696       2.94965934
C        2.80774050      -6.96430037       4.20701101
O        3.01935184      -6.41641853       5.28909444
C        1.92797453      -8.17515502       4.14843946
C        1.46692599      -8.71679152       5.35886198
C        0.63742502      -9.84135092       5.36714877
C        0.25929930     -10.43586165       4.16528388
C        0.71394191      -9.90144493       2.96216325
C        1.54481255      -8.77843445       2.94483131
H        2.65790454      -0.12587740       2.85911605
H        4.06220243      -1.56058925       4.30445618
H        3.99660690      -3.99901746       4.08905389
H        1.10091095      -3.62204238       0.89346358
H        4.37008944      -5.92249661       3.19793715
H        3.71973268      -7.21509636       2.27224594
H        1.74934411      -8.26283245       6.30782343
H        0.28361290     -10.24971179       6.31101696
H       -0.39058194     -11.30729469       4.17563475
H        1.86191234      -8.38620298       1.98372630
C        0.31983218     -10.51330890       1.71962552
C       -0.01023471     -11.02574497       0.67900017
Br      -0.54392497     -11.85431076      -1.00360300
C       -0.00445707       0.01189536      -1.78238275
H       -0.66409135       0.67374010      -2.43557963
H        0.65740317      -0.63156657      -2.45157240
C       -0.90989263      -0.90692880      -0.91072765
C        0.90977584       0.90977584      -0.90977584
C       -0.00465871       1.77757030       0.00794375
H       -0.66225468       2.44313916      -0.64384735
H        0.64322798       2.43503045       0.67728295
C       -1.78241447       0.00034974      -0.00472694
H       -2.45427497      -0.65498947       0.64260836
H       -2.43311707       0.67328779      -0.65473579
C       -0.91132561       0.90220522       0.91563759
C       -0.01476271      -0.02253852       1.78660255
H       -0.67934791      -0.69751639       2.42135241
H        0.63392994       0.61504881       2.47327442
C        0.01484550      -1.77751727      -0.01636693
H        0.67870853      -2.42144646      -0.68295456
H       -0.62264859      -2.45592969       0.64226336
C        1.78714474       0.01002794       0.00389507
H        2.44202412       0.67113390       0.66197326
H        2.45385902      -0.65136977      -0.64189061
C        0.91606151      -0.90478549       0.90901405
