90
Properties=species:S:1:pos:R:3 pbc="F F F"
C        1.79194596       1.79194596      -1.79194596
C        1.45265028       3.12800775      -1.98471643
C        2.26245680       3.92442691      -2.79025483
Br       1.79042846       5.74339331      -3.04583899
C        3.40636779       3.39006899      -3.40116012
O        4.20205903       4.18353644      -4.19613603
C        3.75438212       2.04150739      -3.21036515
C        2.92837150       1.24977860      -2.39526462
C        4.93352283       1.43267466      -3.82164991
N        5.82222815       2.08274205      -4.63426486
H        5.80985053       3.05054471      -4.93295077
N        6.79299537       1.25268215      -5.03316350
N        6.50139875       0.09185636      -4.46585219
N        5.35476577       0.18546458      -3.71322839
H        0.56600034       3.54186580      -1.51110618
H        3.79968210       5.07585942      -4.20502952
H        3.17712092       0.20115931      -2.23198381
C       -1.79194596      -1.79194596      -1.79194596
C       -1.22656095      -2.86664773      -2.47216580
C       -2.03816885      -3.66515924      -3.27381045
Br      -1.25698049      -5.12671756      -4.19596271
C       -3.40855735      -3.39261905      -3.39642050
O       -4.20454582      -4.18643556      -4.19075013
C       -3.98552302      -2.30872867      -2.71200297
C       -3.15489328      -1.51164648      -1.90687497
C       -5.40594272      -1.97883020      -2.80307448
N       -6.32675629      -2.66619704      -3.54628174
H       -6.18203194      -3.48114225      -4.13017183
N       -7.54055911      -2.11706023      -3.42122168
N       -7.36637204      -1.09175672      -2.60097854
N       -6.05240943      -0.99185381      -2.20919550
H       -0.16441378      -3.07761860      -2.37693995
H       -3.62747931      -4.87675971      -4.57633203
H       -3.57872022      -0.66542168      -1.36612213
C       -1.79194596       1.79194596       1.79194596
C       -3.06455955       1.35395641       2.14685851
C       -3.86147723       2.16453836       2.95112294
Br      -5.59369578       1.55757347       3.42839152
C       -3.39067010       3.40730282       3.39962398
O       -4.18421710       4.20311780       4.19439661
C       -2.10635795       3.85525738       3.04463932
C       -1.31334254       3.02724542       2.23282676
C       -1.56522561       5.13970625       3.48291554
N       -2.22417499       6.04222755       4.27283252
H       -3.15474088       5.97192800       4.66667713
N       -1.46233796       7.11911565       4.49738741
N       -0.33460489       6.87899487       3.84550754
N       -0.38130958       5.65940329       3.21274588
H       -3.42917557       0.39071032       1.79908644
H       -5.02755668       3.72454702       4.32846735
H       -0.31385281       3.35241602       1.94399521
C        1.79194596      -1.79194596       1.79194596
C        2.93795579      -1.25556182       2.37185686
C        3.73588280      -2.06693201       3.17432373
Br       5.29497920      -1.32541223       3.95926933
C        3.39189735      -3.40826384       3.39743572
O        4.18561112      -4.20421052       4.19190988
C        2.23579177      -3.95585970       2.81460319
C        1.44018895      -3.12583162       2.00739416
C        1.82976988      -5.34532014       3.01275738
N        2.50671006      -6.26189319       3.77063182
H        3.36317369      -6.13405431       4.29611801
N        1.88096460      -7.44453939       3.75333702
N        0.81896526      -7.25542819       2.98471385
N        0.77196528      -5.96298112       2.51851234
H        3.20429751      -0.21593388       2.19874094
H        4.93112590      -3.64958995       4.49985521
H        0.53873804      -3.52719819       1.54432781
C       -0.00445707       0.01189536      -1.78238275
H       -0.66409135       0.67374010      -2.43557963
H        0.65740317      -0.63156657      -2.45157240
C       -0.90989263      -0.90692880      -0.91072765
C        0.90977584       0.90977584      -0.90977584
C       -0.00465871       1.77757030       0.00794375
H       -0.66225468       2.44313916      -0.64384735
H        0.64322798       2.43503045       0.67728295
C       -1.78241447       0.00034974      -0.00472694
H       -2.45427497      -0.65498947       0.64260836
H       -2.43311707       0.67328779      -0.65473579
C       -0.91132561       0.90220522       0.91563759
C       -0.01476271      -0.02253852       1.78660255
H       -0.67934791      -0.69751639       2.42135241
H        0.63392994       0.61504881       2.47327442
C        0.01484550      -1.77751727      -0.01636693
H        0.67870853      -2.42144646      -0.68295456
H       -0.62264859      -2.45592969       0.64226336
C        1.78714474       0.01002794       0.00389507
H        2.44202412       0.67113390       0.66197326
H        2.45385902      -0.65136977      -0.64189061
C        0.91606151      -0.90478549       0.90901405
