77
Properties=species:S:1:pos:R:3 pbc="F F F"
C        0.00000000       0.00000000       0.00000000
C        0.88204194       0.88204194      -0.88204194
C        0.54274626       2.21810373      -1.07481241
C        1.35255277       3.01452289      -1.88035080
C        2.49646376       2.48016497      -2.49125610
O        3.29215501       3.27363242      -3.28623201
C        2.84447809       1.13160336      -2.30046113
C        2.01846748       0.33987458      -1.48536060
C        4.02361881       0.52277064      -2.91174588
N        4.91232413       1.17283802      -3.72436084
H        4.89994651       2.14064069      -4.02304675
N        5.88309134       0.34277813      -4.12325947
N        5.59149473      -0.81804766      -3.55594817
N        4.44486174      -0.72443944      -2.80332437
H       -0.34390369       2.63196178      -0.60120216
H        2.88977807       4.16595540      -3.29512550
H        2.26721689      -0.70874472      -1.32207978
C        0.99414777       4.39564051      -2.07441255
C        0.69398358       5.55232653      -2.23693926
Br       0.20864348       7.42258998      -2.49973120
C       -0.88204194      -0.88204194      -0.88204194
C       -0.47190867      -2.17668087      -1.18707285
C       -1.28228010      -2.97343209      -1.99171428
C       -2.49715076      -2.48056997      -2.49016410
O       -3.29293541      -3.27409298      -3.28499105
C       -2.91689953      -1.17395613      -2.18568693
C       -2.08944096      -0.38137828      -1.37288342
C       -4.17163777      -0.60933226      -2.67716530
N       -5.07041248      -1.26531930      -3.47379121
H       -5.01657537      -2.20890166      -3.83815692
N       -6.11732545      -0.47978161      -3.75202188
N       -5.86250479       0.65957432      -3.12646477
N       -4.66344065       0.59663905      -2.45694507
H        0.46972811      -2.55838288      -0.80060548
H       -2.83582237      -4.13439871      -3.38063790
H       -2.39304533       0.63516340      -1.12267003
C       -0.85032604      -4.31153893      -2.30233587
C       -0.48856451      -5.43220340      -2.56248145
Br       0.09637329      -7.24422308      -2.98311486
C       -0.88204194       0.88204194       0.88204194
C       -2.11001737       0.39985346       1.32579157
C       -2.90729080       1.21078934       2.12934633
C       -2.48119856       2.49783019       2.48885608
O       -3.27480429       3.29370425       3.28351090
C       -1.24208965       2.99054366       2.04390927
C       -0.44816214       2.16162627       1.23391425
C       -0.74859459       4.32216357       2.38737716
N       -1.41388501       5.23099411       3.16464388
H       -2.31832216       5.13484575       3.61046603
N       -0.70003169       6.35538924       3.29370802
N        0.40452242       6.13818516       2.59573250
N        0.39085535       4.88586804       2.02873398
H       -2.43998381      -0.59770323       1.04697967
H       -4.08365333       2.78097273       3.48623292
H        0.51676096       2.52102409       0.87628884
C       -4.17619542       0.70403602       2.58396939
C       -5.23890305       0.27963012       2.96471620
Br      -6.95721140      -0.40659833       3.58035159
C        0.88204194      -0.88204194       0.88204194
C        2.21028251      -0.52676976       1.09861013
C        3.00675720      -1.33668971       1.90397955
C        2.48022780      -2.49659211       2.49106492
O        3.27370180      -3.29229673       3.28602091
C        1.13958457      -2.86078140       2.27617662
C        0.34770533      -2.03446345       1.46153387
C        0.53908833      -4.05695116       2.86209584
N        1.19014205      -4.94767129       3.67170965
H        2.15327368      -4.92575207       3.98460819
N        0.36850796      -5.93564999       4.04497100
N       -0.78811728      -5.65263390       3.46487861
N       -0.70024465      -4.49428475       2.72970657
H        2.61807756       0.37226516       0.64344786
H        4.16002064      -2.87765506       3.31318328
H       -0.69486035      -2.29557866       1.27983366
C        4.37976367      -0.96171595       2.12272121
C        5.52965659      -0.64767543       2.30591735
Br       7.38893619      -0.13989846       2.60213001
