98
Properties=species:S:1:pos:R:3 pbc="F F F"
C        1.79194596       1.79194596      -1.79194596
C        1.45265028       3.12800775      -1.98471643
C        2.26245680       3.92442691      -2.79025483
C        3.40636779       3.39006899      -3.40116012
O        4.20205903       4.18353644      -4.19613603
C        3.75438212       2.04150739      -3.21036515
C        2.92837150       1.24977860      -2.39526462
C        4.93352283       1.43267466      -3.82164991
N        5.82222815       2.08274205      -4.63426486
H        5.80985053       3.05054471      -4.93295077
N        6.79299537       1.25268215      -5.03316350
N        6.50139875       0.09185636      -4.46585219
N        5.35476577       0.18546458      -3.71322839
H        0.56600034       3.54186580      -1.51110618
H        3.79968210       5.07585942      -4.20502952
H        3.17712092       0.20115931      -2.23198381
C        1.90405180       5.30554454      -2.98431657
C        1.60388761       6.46223055      -3.14684328
Br       1.11854751       8.33249400      -3.40963522
C       -1.79194596      -1.79194596      -1.79194596
C       -1.20088939      -2.71925096      -2.64523412
C       -2.01270035      -3.51894120      -3.44549699
C       -3.40880315      -3.39405474      -3.39473901
O       -4.20482455      -4.18806740      -4.18883956
C       -4.01176494      -2.45942816      -2.53506156
C       -3.18061275      -1.65932862      -1.73347335
C       -5.45957870      -2.28683569      -2.44143300
N       -6.38401087      -2.99521446      -3.16000974
H       -6.22423881      -3.72393657      -3.84517063
N       -7.62541343      -2.60451068      -2.84891691
N       -7.46458811      -1.65566265      -1.93885655
N       -6.13163743      -1.44663708      -1.67518423
H       -0.11881695      -2.81580298      -2.68435239
H       -3.60793123      -4.76447953      -4.70816029
H       -3.62431843      -0.92724580      -1.05869981
C       -1.39290225      -4.47564027      -4.32537038
C       -0.87382134      -5.27687575      -5.06226435
Br      -0.03451141      -6.57240575      -6.25375957
C       -1.79194596       1.79194596       1.79194596
C       -3.03924335       1.32721915       2.19891197
C       -3.83636277       2.13801518       3.00276058
C       -3.39091534       3.40756374       3.39911782
O       -4.18449564       4.20341445       4.19382142
C       -2.13223987       3.88259431       2.99142048
C       -1.33870719       3.05403465       2.18067288
C       -1.61812462       5.19557833       3.37414445
N       -2.28066989       6.10191588       4.15664930
H       -3.19641677       6.01597932       4.58094992
N       -1.54604651       7.20754247       4.32525203
N       -0.43145965       6.98128513       3.64636253
N       -0.45942746       5.74189705       3.05213423
H       -3.38420815       0.34321757       1.89154660
H       -5.00827428       3.70417893       4.36811783
H       -0.35882166       3.39991032       1.85153206
C       -5.12532885       1.64939274       3.41919132
C       -6.20483793       1.24017144       3.76795207
Br      -7.95031283       0.57849521       4.33186870
C        1.79194596      -1.79194596       1.79194596
C        2.80540626      -1.21112690       2.54884130
C        3.60439075      -2.02285400       3.34989378
C        3.39318363      -3.40869964       3.39571363
O        4.18707240      -4.20470631       4.18995279
C        2.37130585      -4.00129369       2.63365511
C        1.57299309      -3.17035382       1.83006782
C        2.10674080      -5.43817869       2.64292791
N        2.80253020      -6.36111491       3.37558996
H        3.58142155      -6.20730428       4.00462019
N        2.31926565      -7.59151882       3.16805654
N        1.32607203      -7.42542407       2.30761120
N        1.18096094      -6.10006812       1.97242969
H        2.96885750      -0.13700386       2.51311097
H        4.83016396      -3.61573627       4.63467082
H        0.77418557      -3.60613085       1.22994762
C        4.65056870      -1.41368835       4.12965585
C        5.52674274      -0.90351211       4.78270658
Br       6.94344206      -0.07860028       5.83863438
C       -0.00445707       0.01189536      -1.78238275
H       -0.66409135       0.67374010      -2.43557963
H        0.65740317      -0.63156657      -2.45157240
C       -0.90989263      -0.90692880      -0.91072765
C        0.90977584       0.90977584      -0.90977584
C       -0.00465871       1.77757030       0.00794375
H       -0.66225468       2.44313916      -0.64384735
H        0.64322798       2.43503045       0.67728295
C       -1.78241447       0.00034974      -0.00472694
H       -2.45427497      -0.65498947       0.64260836
H       -2.43311707       0.67328779      -0.65473579
C       -0.91132561       0.90220522       0.91563759
C       -0.01476271      -0.02253852       1.78660255
H       -0.67934791      -0.69751639       2.42135241
H        0.63392994       0.61504881       2.47327442
C        0.01484550      -1.77751727      -0.01636693
H        0.67870853      -2.42144646      -0.68295456
H       -0.62264859      -2.45592969       0.64226336
C        1.78714474       0.01002794       0.00389507
H        2.44202412       0.67113390       0.66197326
H        2.45385902      -0.65136977      -0.64189061
C        0.91606151      -0.90478549       0.90901405
