185
Properties=species:S:1:pos:R:3 pbc="F F F"
C        0.00000000       0.00000000       0.00000000
C        0.86705234       0.86705234      -0.86705234
C        1.07799718       0.69489136      -2.23801652
N        1.83595508       1.66754811      -2.75552105
N        2.14762747       2.45497293      -1.66847381
C        1.57999287       1.97503870      -0.50791919
C        2.90525125       3.63807319      -1.83232449
O        3.26187514       4.26403717      -0.84625488
N        3.02516664       3.91635385      -3.17525415
C        3.54589298       5.08459297      -3.74771747
C        4.31706726       6.00286947      -3.04150360
C        4.79287243       7.15149909      -3.67749326
C        4.49549065       7.41333632      -5.02453315
C        3.70885538       6.49072248      -5.72166116
C        3.25242020       5.32887934      -5.09218860
C        5.06289612       8.67184242      -5.63732136
C        4.70393541       8.98422825      -7.07028353
C        3.66572439       9.87652039      -7.35229749
C        3.41829069      10.27826606      -8.66603211
C        4.19690316       9.79270233      -9.72047387
C        5.15930320       8.81398259      -9.45341188
C        5.42036815       8.42133858      -8.13532763
N        4.10350459      10.28974046     -11.02816588
C        3.51741270      11.49373415     -11.37820771
O        2.88197768      12.28849842     -10.70582067
N        3.80205774      11.81900316     -12.72202387
N        4.49734493      10.95567109     -13.53631910
C        4.57521561      11.61370688     -14.70062337
C        3.97298955      12.87373144     -14.64011054
Br       3.88784163      14.11755649     -16.02583997
C        3.48288459      12.99324403     -13.37203033
H        0.70151422      -0.08176653      -2.89200143
H        1.70762783       2.50186305       0.42752129
H        2.55446332       3.25167777      -3.78928554
H        4.58295053       5.84508411      -2.00059857
H        5.40437923       7.84710508      -3.10636575
H        3.43382628       6.65799762      -6.76038467
H        2.63902944       4.63574060      -5.66238081
H        6.15816648       8.62795908      -5.56594150
H        4.75786637       9.52343053      -5.01288965
H        3.06499234      10.29970758      -6.54990582
H        2.61688657      10.99193276      -8.83131881
H        5.75933044       8.38966720     -10.25382883
H        6.21121668       7.69974942      -7.93987520
H        4.66880575       9.86059085     -11.76038317
H        5.07396471      11.14170244     -15.53890379
H        2.95520404      13.78392489     -12.85458460
C       -0.86705234      -0.86705234      -0.86705234
C       -1.09873745      -2.23264217      -0.67952544
N       -1.97644103      -2.71911744      -1.56346577
N       -2.27577134      -1.63526836      -2.36003452
C       -1.59840395      -0.50314839      -1.96139841
C       -3.23309567      -1.74737137      -3.39518189
O       -3.40608519      -0.80888626      -4.15719575
N       -3.89042821      -2.95104209      -3.27530434
C       -5.02145071      -3.36536160      -3.99139111
C       -5.45371509      -2.74696821      -5.16075703
C       -6.59780304      -3.20978820      -5.81427354
C       -7.34052358      -4.28731019      -5.30552636
C       -6.90504195      -4.89344504      -4.12275204
C       -5.74632633      -4.44595184      -3.48120997
C       -8.55615315      -4.73212646      -6.08378029
C       -9.38740709      -5.85667267      -5.51436744
C      -10.54266126      -5.57030202      -4.78157899
C      -11.39111578      -6.60006315      -4.37140994
C      -11.09906157      -7.93194284      -4.67907496
C       -9.88736908      -8.22824549      -5.31108311
C       -9.04262629      -7.19670514      -5.73770293
N      -11.99635425      -8.98292065      -4.44213603
C      -13.35180333      -8.82985808      -4.20769315
O      -14.01586781      -7.82073650      -4.03969247
N      -14.01336517     -10.07600517      -4.25371442
N      -13.31771938     -11.25072777      -4.42088798
C      -14.27595502     -12.18690629      -4.42668455
C      -15.55495019     -11.63891950      -4.29296184
Br     -17.16003757     -12.58666445      -4.28453608
C      -15.37431240     -10.29064819      -4.18319835
H       -0.68579784      -2.89607396       0.07012268
H       -1.75113489       0.43879512      -2.46962981
H       -3.58973801      -3.52101860      -2.48467002
H       -4.91205882      -1.91531794      -5.60125645
H       -6.90715793      -2.71695621      -6.73373591
H       -7.45687278      -5.71790736      -3.67742843
H       -5.43938134      -4.93673588      -2.56103364
H       -8.23279699      -5.02835009      -7.09091998
H       -9.20919639      -3.85943281      -6.22555736
H      -10.81608997      -4.54139228      -4.55712349
H      -12.28889102      -6.32504771      -3.82619940
H       -9.61244010      -9.25538664      -5.53499973
H       -8.13042094      -7.44255883      -6.27786154
H      -11.70337232      -9.93754169      -4.64886576
H      -13.99350548     -13.22761586      -4.53344961
H      -16.05871969      -9.45911857      -4.07587527
C       -0.86705234       0.86705234       0.86705234
C       -1.20461217       0.60786678       2.19842611
N       -1.92588524       1.59768319       2.73545580
N       -2.08382277       2.48995011       1.69730133
C       -1.45981443       2.05519927       0.54793706
C       -2.75893659       3.71610463       1.90060771
O       -2.98244104       4.44392871       0.94579744
N       -2.96895422       3.89898101       3.24883942
C       -3.44404310       5.05902008       3.87514025
C       -4.08026141       6.09034487       3.19083405
C       -4.51754910       7.22224149       3.88207419
C       -4.31459402       7.35355125       5.26521486
C       -3.66258972       6.31732489       5.94132441
C       -3.24611103       5.17341829       5.25395882
C       -4.83246690       8.60406438       5.93552862
C       -4.57162104       8.77381202       7.41301414
C       -3.49489644       9.55168268       7.84796314
C       -3.32798222       9.82874062       9.20586603
C       -4.22722324       9.33010720      10.15274893
C       -5.23654971       8.45887410       9.73127386
C       -5.41594036       8.19233477       8.36875923
N       -4.20548430       9.71519188      11.50073475
C       -3.55957957      10.83531537      11.99445962
O       -2.81069016      11.62363726      11.44196935
N       -3.92970464      11.07858834      13.33479178
N       -4.75522105      10.21620124      14.01791284
C       -4.87921841      10.78663117      15.22369629
C       -4.17861189      11.99275245      15.31546719
Br      -4.11397234      13.11443967      16.80282608
C       -3.57637639      12.16833684      14.10344570
H       -0.94522252      -0.24570780       2.81223440
H       -1.46770404       2.66146291      -0.34719737
H       -2.60397260       3.15186074       3.83959330
H       -4.26950596       6.03615232       2.12297494
H       -5.02362200       8.00856019       3.32566786
H       -3.46334397       6.38034872       7.00851589
H       -2.73789777       4.38946535       5.80978773
H       -5.91803425       8.65760936       5.77642345
H       -4.41146297       9.47278346       5.40994012
H       -2.79828088       9.98377743       7.13254743
H       -2.49054360      10.45796626       9.49162826
H       -5.93238689       8.02575188      10.44468769
H       -6.24097953       7.55668279       8.05317899
H       -4.86148821       9.27962423      12.14866733
H       -5.48128338      10.29473465      15.97855291
H       -2.94781940      12.94966086      13.69623328
C        0.86705234      -0.86705234       0.86705234
C        1.33100912      -2.14342898       0.53646696
N        2.14712224      -2.63919240       1.47270960
N        2.16501294      -1.66197432       2.44408696
C        1.37966881      -0.58280957       2.10047237
C        2.98065093      -1.80413661       3.59086139
O        2.90209264      -0.98075818       4.48931637
N        3.82699205      -2.87549481       3.41428779
C        4.90232875      -3.24061917       4.23525550
C        5.07264343      -2.75903435       5.52976255
C        6.17668555      -3.16016005       6.28501919
C        7.13912779      -4.03621957       5.75801277
C        6.96555770      -4.50415551       4.45152581
C        5.84797421      -4.12185071       3.70366322
C        8.29367621      -4.42950664       6.64887704
C        9.35820244      -5.33030369       6.06994106
C       10.54263162      -4.78139215       5.57051850
C       11.58793041      -5.61184371       5.16281474
C       11.46768171      -7.00232126       5.24007640
C       10.24306397      -7.55286746       5.63076624
C        9.19891684      -6.72273172       6.05538579
N       12.54085746      -7.87389394       5.00665953
C       13.87513449      -7.50601324       5.00820683
O       14.39088550      -6.40325972       5.08215155
N       14.70997638      -8.64414042       4.98896797
N       14.18914299      -9.91307765       4.88711448
C       15.27160536     -10.70181918       4.91612132
C       16.45622662      -9.97330035       5.05730456
Br      18.17548748     -10.68445850       5.17129212
C       16.08476581      -8.66086548       5.10252766
H        1.13034909      -2.73168316      -0.35028313
H        1.31475925       0.28064888       2.74785922
H        3.72717477      -3.35087187       2.51737999
H        4.35431862      -2.08607173       5.98824286
H        6.27969680      -2.77913164       7.29902161
H        7.69337104      -5.16797024       3.99086729
H        5.74709927      -4.50044086       2.68961073
H        7.88821414      -4.91916983       7.54468309
H        8.77830810      -3.50986297       7.00601549
H       10.68054739      -3.70285984       5.53119850
H       12.49697903      -5.13768422       4.80547488
H       10.10347741      -8.62978619       5.66956287
H        8.27189348      -7.16949910       6.40944873
H       12.37464355      -8.87958533       5.03555090
H       15.14246662     -11.77483306       4.83727126
H       16.63987322      -7.73862363       5.21521668
