186
Properties=species:S:1:pos:R:3 pbc="F F F"
C        1.78937511       1.78937511      -1.78937511
C        1.40828745       3.08562261      -2.08973831
N        2.15649930       3.92157580      -2.83910059
C        3.31680674       3.41543088      -3.34279816
C        3.75852118       2.10811724      -3.15890898
C        2.98051574       1.29616823      -2.32163299
C        4.94717258       1.48910457      -3.83327410
O        5.44703617       0.47238001      -3.34804436
N        5.40707285       1.98204517      -5.04704533
N        5.00376626       3.15900403      -5.53975830
C        5.19745213       3.54957503      -6.75764584
C        5.73597454       2.95170095      -7.99900735
C        5.97957380       3.91815702      -8.99699181
C        6.39492521       3.54310083     -10.26937786
Br       6.58370598       4.84919352     -11.61970629
C        6.65044141       2.21229500     -10.54772472
C        6.43698140       1.24988231      -9.55835928
C        5.89700154       1.59362672      -8.30677723
O        5.45968362       0.65095285      -7.41565470
C        5.08787114      -0.65106146      -7.91762672
C        4.06179035      -0.64792946      -9.03828075
C        4.31118395      -1.34457139     -10.23433392
C        3.41171380      -1.27516512     -11.30012973
C        2.24063995      -0.53261713     -11.17378774
C        1.96341865       0.13128586      -9.97906139
C        2.86686986       0.07263838      -8.91533524
H        0.47341706       3.50547493      -1.73264036
H        3.87956642       4.15068570      -3.90561802
H        3.29339249       0.27560169      -2.10962746
H        6.08293308       1.42234365      -5.55780489
H        4.86524675       4.59576783      -6.89329111
H        5.80999190       4.97369511      -8.79493704
H        6.98431089       1.90334292     -11.53566111
H        6.65188079       0.21925264      -9.81945243
H        4.65427770      -1.20164930      -7.07451692
H        5.99656053      -1.19843598      -8.19765737
H        5.22414399      -1.92302266     -10.35806018
H        3.62788602      -1.79360099     -12.23115739
H        1.54313290      -0.47139900     -12.00562089
H        1.04551588       0.70517037      -9.88017482
H        2.64521148       0.61072579      -7.99640404
C       -1.78937511      -1.78937511      -1.78937511
C       -3.13361581      -1.50092226      -1.94911030
N       -3.95689259      -2.22466655      -2.73561654
C       -3.41205558      -3.31029186      -3.35268834
C       -2.09210707      -3.72761891      -3.20582141
C       -1.25916420      -2.90909185      -2.43006091
C       -1.51827675      -5.00347970      -3.74779479
O       -0.29572899      -5.10607051      -3.86566104
N       -2.33814391      -6.09440228      -4.00361717
N       -3.67214401      -5.99421125      -4.03617333
C       -4.48403714      -7.00111845      -4.01951741
C       -4.36632738      -8.46643735      -3.85391811
C       -5.55629348      -9.14144793      -4.19698121
C       -5.67730219     -10.51428658      -4.01581513
Br      -7.32689197     -11.36607350      -4.35964032
C       -4.59488779     -11.24923929      -3.56633406
C       -3.40341163     -10.59364892      -3.24816244
C       -3.30109705      -9.19270148      -3.30360696
O       -2.23456451      -8.51631586      -2.77541080
C       -1.45699287      -9.15676442      -1.74067911
C       -2.25058605      -9.65640435      -0.54515124
C       -2.11284892     -10.98457659      -0.10352096
C       -2.90189029     -11.47412111       0.93933299
C       -3.81686411     -10.63585762       1.57091117
C       -3.93543544      -9.30605608       1.16772562
C       -3.15529304      -8.81690284       0.11735241
H       -3.60428861      -0.66414379      -1.44309996
H       -4.12142000      -3.82307879      -3.99137134
H       -0.20786484      -3.16264917      -2.30810763
H       -1.89139656      -6.98828273      -4.18340232
H       -5.52910031      -6.66673271      -4.15847267
H       -6.41346473      -8.58898524      -4.57617408
H       -4.67046993     -12.32532337      -3.42752160
H       -2.58025581     -11.20900715      -2.90132290
H       -0.74369402      -8.40911183      -1.37433946
H       -0.85162146      -9.95351022      -2.19065023
H       -1.41101864     -11.65939474      -0.58876813
H       -2.80854138     -12.51078143       1.25388038
H       -4.43737616     -11.01788027       2.37790164
H       -4.64575415      -8.65149387       1.66638694
H       -3.27225734      -7.78240728      -0.19767668
C       -1.78937511       1.78937511       1.78937511
C       -3.05608059       1.37017822       2.15738956
N       -3.87051009       2.09062450       2.95604108
C       -3.40554146       3.30404939       3.36544493
C       -2.17824479       3.84898578       2.99831683
C       -1.34055391       3.03777330       2.21998975
C       -1.71854719       5.24315372       3.30785034
O       -0.51485826       5.50183314       3.25076915
N       -2.63973280       6.25549038       3.54094018
N       -3.93596524       6.00604681       3.76051655
C       -4.86990540       6.90067930       3.73408830
C       -4.96647423       8.33503357       3.38517504
C       -6.18701724       8.90640518       3.80130020
C       -6.50820437      10.21991099       3.47928853
Br      -8.20443187      10.91196595       3.93620796
C       -5.59180464      11.01001137       2.80864512
C       -4.36944136      10.46121490       2.41456674
C       -4.07756904       9.10128898       2.61854748
O       -2.99988174       8.48980364       2.03660579
C       -2.43916558       9.07426633       0.84100450
C       -3.42527953       9.31623298      -0.28937087
C       -3.51614538      10.58151222      -0.89671113
C       -4.47869591      10.83419883      -1.87621633
C       -5.34233709       9.81933528      -2.27986181
C       -5.23685907       8.54961189      -1.71270506
C       -4.28224624       8.29726715      -0.72466992
H       -3.46793529       0.42499090       1.81860616
H       -4.09720679       3.81057859       4.02808476
H       -0.35323448       3.39353884       1.93184833
H       -2.29688985       7.21109834       3.55509343
H       -5.83845230       6.46831066       4.04754273
H       -6.91391367       8.31287529       4.35183509
H       -5.82422324      12.04224943       2.55684223
H       -3.68056124      11.11697147       1.89305316
H       -1.68099629       8.37289266       0.47325637
H       -1.89594748       9.98831750       1.11151693
H       -2.85779365      11.39140060      -0.59001274
H       -4.56004912      11.82409940      -2.31870610
H       -6.09738269      10.01686617      -3.03689407
H       -5.90779731       7.75690851      -2.03384475
H       -4.22437010       7.30681535      -0.27884414
C        1.78937511      -1.78937511       1.78937511
C        1.23212057      -2.80576514       2.54576266
N        1.96069693      -3.63493547       3.32154327
C        3.30219638      -3.40218172       3.37065769
C        3.95327533      -2.36733454       2.70493753
C        3.16509677      -1.57140698       1.86181320
C        5.39827092      -1.99979369       2.87148663
O        5.94597080      -1.32013430       2.00135544
N        6.07836649      -2.31858547       4.03921140
N        5.58581485      -3.17403318       4.94268056
C        6.04403875      -3.31671106       6.14392318
C        7.05367935      -2.64322191       6.98978158
C        7.36052428      -3.38414560       8.15005275
C        8.21477279      -2.87264295       9.11998816
Br       8.49995318      -3.83115697      10.72149563
C        8.83846854      -1.65453123       8.91746136
C        8.56120561      -0.92449153       7.75952585
C        7.60500634      -1.36462514       6.82777402
O        7.14570290      -0.56286229       5.81772598
C        7.24968511       0.86902389       5.97377518
C        6.63766181       1.43129845       7.24577827
C        7.38846942       2.27323273       8.08570977
C        6.86198240       2.72341953       9.29811554
C        5.57066315       2.36102644       9.67217386
C        4.80195301       1.55810602       8.82991891
C        5.33030010       1.09722881       7.62177219
H        0.16324002      -2.99334886       2.55494347
H        3.82568865      -4.12460318       3.98557831
H        3.62311374      -0.76948191       1.28602600
H        6.98575298      -1.88831108       4.18901756
H        5.53922732      -4.15391029       6.66116809
H        6.90211360      -4.35602974       8.32048071
H        9.51631253      -1.24438992       9.66261246
H        9.07372655       0.02409232       7.64095163
H        6.71903528       1.31764992       5.12575996
H        8.30009389       1.16500894       5.86069696
H        8.40269463       2.56109674       7.81758362
H        7.46139568       3.35006767       9.95411441
H        5.16232177       2.70450155      10.61953456
H        3.79169576       1.28161961       9.12078492
H        4.72498672       0.45680177       6.98415635
C       -0.00445707       0.01189536      -1.78238275
H       -0.66409135       0.67374010      -2.43557963
H        0.65740317      -0.63156657      -2.45157240
C       -0.90989263      -0.90692880      -0.91072765
C        0.90977584       0.90977584      -0.90977584
C       -0.00465871       1.77757030       0.00794375
H       -0.66225468       2.44313916      -0.64384735
H        0.64322798       2.43503045       0.67728295
C       -1.78241447       0.00034974      -0.00472694
H       -2.45427497      -0.65498947       0.64260836
H       -2.43311707       0.67328779      -0.65473579
C       -0.91132561       0.90220522       0.91563759
C       -0.01476271      -0.02253852       1.78660255
H       -0.67934791      -0.69751639       2.42135241
H        0.63392994       0.61504881       2.47327442
C        0.01484550      -1.77751727      -0.01636693
H        0.67870853      -2.42144646      -0.68295456
H       -0.62264859      -2.45592969       0.64226336
C        1.78714474       0.01002794       0.00389507
H        2.44202412       0.67113390       0.66197326
H        2.45385902      -0.65136977      -0.64189061
C        0.91606151      -0.90478549       0.90901405
