178
Properties=species:S:1:pos:R:3 pbc="F F F"
C        1.79152042       1.79152042      -1.79152042
C        2.67066879       1.19981413      -2.69763395
C        3.46072452       2.00180082      -3.52547488
C        3.34751740       3.39489330      -3.48094643
N        4.15284134       4.18942681      -4.30848506
C        3.58473604       5.50384965      -4.62143555
H        4.39364825       6.08734707      -5.07079084
C        2.44254107       5.46266161      -5.60765180
C        1.06377656       5.42969319      -5.49604277
C        0.55017228       5.37892088      -6.81286641
C        1.64077540       5.38046733      -7.65273378
C        1.78848283       5.35363069      -9.12016252
O        2.79318550       5.42240529      -6.92966489
N        3.18082776       6.15008229      -3.37353598
N        2.90418163       7.54475281      -3.46469774
C        3.89279577       8.46251564      -3.77360320
O        5.04021352       8.14512805      -4.07738515
C        3.43432680       9.83611336      -3.76055662
C        4.08313026      11.00999282      -4.09761443
C        3.13852557      12.05460953      -3.95116198
C        1.97290709      11.45964480      -3.52704488
Br       0.37644676      12.35719782      -3.17428434
O        2.13974352      10.11550922      -3.40789132
C        2.44423661       5.44997645      -2.42697398
O        1.73826495       6.00039657      -1.58292772
C        2.50634976       3.97109033      -2.51763826
C        1.71324335       3.17725520      -1.68261298
H        2.74938160       0.11759862      -2.76927536
H        4.15100447       1.52790105      -4.21911269
H        4.43182000       3.71475348      -5.16245385
H        0.49342015       5.44323937      -4.57671893
H       -0.48855999       5.34727429      -7.11202513
H        2.53480808       4.61202874      -9.42033326
H        2.10623622       6.33436816      -9.48700856
H        0.84064262       5.09745250      -9.60381564
H        2.04492667       7.86192236      -3.01648051
H        5.11198373      11.08550314      -4.42549660
H        3.29138285      13.10820134      -4.13880759
H        1.04308919       3.64190643      -0.96343964
C       -1.79152042      -1.79152042      -1.79152042
C       -3.17288688      -1.60208970      -1.79314030
C       -3.98204436      -2.38826186      -2.61769400
C       -3.41323831      -3.33758208      -3.47253673
N       -4.23567292      -4.12779532      -4.28728498
C       -3.58311616      -4.62496917      -5.50193590
H       -4.24721063      -5.39023154      -5.91434399
C       -3.37524146      -3.57304857      -6.56456445
C       -2.32474119      -2.74536017      -6.91941116
C       -2.77450912      -1.96067271      -8.00677773
C       -4.07188784      -2.34947744      -8.25261123
C       -5.08203280      -1.93557513      -9.24466810
O       -4.44734666      -3.32125891      -7.37665011
N       -2.31769925      -5.25637434      -5.13037244
N       -1.71336932      -6.06234926      -6.13791360
C       -2.31088385      -7.22440386      -6.59362690
O       -3.42761259      -7.59513117      -6.23998296
C       -1.51897153      -7.93873440      -7.57329085
C       -1.80425141      -9.06878668      -8.31769943
C       -0.68940186      -9.29370830      -9.16118691
C        0.21250271      -8.29432266      -8.87777681
Br       1.87422036      -8.08391520      -9.69823407
O       -0.27895516      -7.46703620      -7.91715269
C       -1.44101395      -4.61541531      -4.26475778
O       -0.23589746      -4.86020926      -4.22548252
C       -2.02947876      -3.55789007      -3.40770952
C       -1.21105010      -2.77810306      -2.58395837
H       -3.63070330      -0.84675017      -1.15880211
H       -5.05886171      -2.23870258      -2.60045392
H       -5.11419772      -3.67390732      -4.52092229
H       -1.34873419      -2.71092715      -6.45371710
H       -2.21904173      -1.20563193      -8.54606577
H       -6.04769716      -1.75727707      -8.76219586
H       -5.21076231      -2.71476002     -10.00209061
H       -4.77871189      -1.01326654      -9.74993233
H       -0.71623932      -5.91489422      -6.29219600
H       -2.72049653      -9.64231400      -8.26017295
H       -0.56599118     -10.08400800      -9.88839260
H       -0.13621474      -2.94170588      -2.57051464
C       -1.79152042       1.79152042       1.79152042
C       -2.07780216       3.09678219       1.39353251
C       -2.90546912       3.89930132       2.18322978
C       -3.48252910       3.39004963       3.35077840
N       -4.30250698       4.20772247       4.14052377
C       -5.28345389       3.47777149       4.94879586
H       -5.68759729       4.19963793       5.66455094
C       -6.43955559       2.91665645       4.15664244
C       -6.71825856       1.68915522       3.58209873
C       -7.97842267       1.81178693       2.95174997
C       -8.39640372       3.10449801       3.17307478
C       -9.61007911       3.85426240       2.79793453
O       -7.46486430       3.78445091       3.89594047
N       -4.59097959       2.42414938       5.68931706
N       -5.33191209       1.83022496       6.75149512
C       -5.70417307       2.55409102       7.87065052
O       -5.50982080       3.76122143       7.99168449
C       -6.39761192       1.76552096       8.86786390
C       -6.99729424       2.13564965      10.05779363
C       -7.57487942       0.96438084      10.60503682
C       -7.28831615      -0.05156136       9.72284198
Br      -7.81006624      -1.83040988       9.92827256
O       -6.57536138       0.42160568       8.66617699
C       -3.68844104       1.58931169       5.04343431
O       -3.38959619       0.47116676       5.46082629
C       -3.12967289       2.09798513       3.76742033
C       -2.30007999       1.28752443       2.98550711
H       -1.66409867       3.49994354       0.47221337
H       -3.11097251       4.91931560       1.86773011
H       -4.76206922       4.94011312       3.60684499
H       -6.09129640       0.80794129       3.61414077
H       -8.51632570       1.04947384       2.40493989
H       -9.34802463       4.83332614       2.38581931
H      -10.24792958       4.00560265       3.67408071
H      -10.18753376       3.31100872       2.04336828
H       -5.32023823       0.81137264       6.79171867
H       -7.02176646       3.13973284      10.46148418
H       -8.13508102       0.87778134      11.52552942
H       -2.06298606       0.27679271       3.30865649
C        1.79152042      -1.79152042       1.79152042
C        1.41081043      -3.10778634       2.04952010
C        2.22693882      -3.92713921       2.83392220
C        3.44411895      -3.44949738       3.32974080
N        4.24938463      -4.27705497       4.12431361
C        5.67568228      -3.94071886       4.09362009
H        6.13980392      -4.50232224       4.90966001
C        6.37283297      -4.32812810       2.81189341
C        6.68568992      -3.66580431       1.63801829
C        7.33562025      -4.60383417       0.80250514
C        7.38047129      -5.78415070       1.50935452
C        7.92785588      -7.12146280       1.21295736
O        6.79086579      -5.62820261       2.72618728
N        5.82723341      -2.51198706       4.36522556
N        7.14836240      -2.08298614       4.68228363
C        7.79220885      -2.50413223       5.83257353
O        7.32182768      -3.33459569       6.60630334
C        9.10281119      -1.91515676       6.01302883
C       10.07533958      -2.14682451       6.96857343
C       11.18275877      -1.33232671       6.62921159
C       10.81961191      -0.64696147       5.49302339
Br      11.89727339       0.57637111       4.58702664
O        9.56137249      -0.99174758       5.11002398
C        5.03458407      -1.58367505       3.70292793
O        5.35678386      -0.40490308       3.55990231
C        3.77688175      -2.10401102       3.11418559
C        2.96565925      -1.27488351       2.33256877
H        0.48330375      -3.50700691       1.64594492
H        1.91253997      -4.94785459       3.03762366
H        4.11691548      -5.26497239       3.92713946
H        6.47436919      -2.62959484       1.40941442
H        7.72530433      -4.43796571      -0.19253061
H        7.20220841      -7.90084069       1.46412098
H        8.83903633      -7.29511606       1.79346055
H        8.17489004      -7.21611935       0.15090137
H        7.47723191      -1.24796980       4.19812783
H        9.98790976      -2.83811758       7.79695614
H       12.12853912      -1.26183276       7.14801991
H        3.25575124      -0.24309784       2.14958617
C       -0.00445707       0.01189536      -1.78238275
H       -0.66409135       0.67374010      -2.43557963
H        0.65740317      -0.63156657      -2.45157240
C       -0.90989263      -0.90692880      -0.91072765
C        0.90977584       0.90977584      -0.90977584
C       -0.00465871       1.77757030       0.00794375
H       -0.66225468       2.44313916      -0.64384735
H        0.64322798       2.43503045       0.67728295
C       -1.78241447       0.00034974      -0.00472694
H       -2.45427497      -0.65498947       0.64260836
H       -2.43311707       0.67328779      -0.65473579
C       -0.91132561       0.90220522       0.91563759
C       -0.01476271      -0.02253852       1.78660255
H       -0.67934791      -0.69751639       2.42135241
H        0.63392994       0.61504881       2.47327442
C        0.01484550      -1.77751727      -0.01636693
H        0.67870853      -2.42144646      -0.68295456
H       -0.62264859      -2.45592969       0.64226336
C        1.78714474       0.01002794       0.00389507
H        2.44202412       0.67113390       0.66197326
H        2.45385902      -0.65136977      -0.64189061
C        0.91606151      -0.90478549       0.90901405
