178
Properties=species:S:1:pos:R:3 pbc="F F F"
N        2.82417868       7.75456279     -10.30120922
C        3.43467772       7.39445171      -9.38271829
C        4.17366646       6.93070180      -8.24502790
C        3.54942841       6.05718607      -7.34428432
C        4.21955327       5.56290145      -6.23295353
N        3.58343512       4.73921322      -5.38832317
C        4.26962523       4.25904911      -4.30702053
C        3.43730430       3.41310609      -3.42079351
C        2.49835249       2.51927846      -3.97678790
C        1.68166482       1.71568633      -3.17449535
C        1.79095261       1.79095261      -1.79095261
C        2.69451649       2.67359495      -1.20754318
C        3.49720333       3.48790599      -2.01677353
C        5.61975421       4.59841293      -4.11693699
N        6.24903548       5.46198323      -4.96960145
C        5.55811404       5.93910197      -6.01310013
C        6.17340909       6.81465734      -6.89741378
C        5.49498400       7.32060959      -8.01400113
C        6.18219974       8.22919100      -8.88633255
N        6.75076552       8.96559183      -9.57672401
C        6.51664515       4.08315935      -3.06157814
C        7.36771397       4.96595492      -2.36650275
C        8.24386857       4.51011834      -1.37684138
C        8.28399035       3.15540151      -1.06636436
C        7.46730964       2.25513324      -1.74476406
C        6.59986445       2.71559659      -2.74279952
H        2.51638723       5.74794627      -7.50539327
H        2.39055199       2.45084032      -5.05907016
H        0.96529790       1.04442079      -3.64152608
H        2.77825879       2.74519489      -0.12575144
H        4.16884808       4.18887255      -1.52390338
H        7.20815024       7.10128574      -6.70592183
H        7.35767248       6.02882492      -2.60647730
H        8.89002474       5.21895753      -0.86549438
H        7.50178178       1.19347295      -1.51304415
H        5.99221891       1.98438474      -3.27349765
C        9.18154612       2.68148240      -0.04489760
C        9.93324907       2.28457515       0.81058081
Br      11.14868916       1.64280970       2.19381705
N       -9.12843813      -9.18080803      -2.57070452
C       -8.48598979      -8.48499254      -3.24086538
C       -7.67612191      -7.62256696      -4.05070728
C       -6.75427583      -6.77471467      -3.42190829
C       -5.93227503      -5.92856639      -4.15456682
N       -5.07212585      -5.12375111      -3.51509454
C       -4.26722370      -4.30744733      -4.26102384
C       -3.41056467      -3.42554571      -3.43509352
C       -2.82622272      -3.91851838      -2.24967775
C       -2.02514235      -3.11345208      -1.43325207
C       -1.79095261      -1.79095261      -1.79095261
C       -2.36487347      -1.26612777      -2.94465339
C       -3.18011648      -2.07312662      -3.74863976
C       -4.32339978      -4.34732678      -5.66437757
N       -5.22479809      -5.15163025      -6.30419182
C       -6.01970884      -5.93106490      -5.55954240
C       -6.94162999      -6.76088456      -6.18296566
C       -7.77738148      -7.60837048      -5.44384276
C       -8.71630403      -8.43596824      -6.14545102
N       -9.47185309      -9.09312879      -6.72809949
C       -3.45404515      -3.60586739      -6.60147010
C       -4.01385605      -2.96255474      -7.72376086
C       -3.21894365      -2.26987757      -8.64200707
C       -1.84284975      -2.21109224      -8.45181422
C       -1.25685622      -2.84849391      -7.36185681
C       -2.05647661      -3.55025631      -6.45152764
H       -6.66681005      -6.76777473      -2.33514199
H       -3.00402978      -4.95004209      -1.94639060
H       -1.59851829      -3.52898933      -0.52373714
H       -2.19433084      -0.22952787      -3.22534640
H       -3.63761881      -1.61831414      -4.62569106
H       -7.00070599      -6.74278909      -7.27186273
H       -5.08907628      -3.00965517      -7.89424325
H       -3.68454397      -1.79061919      -9.49931348
H       -0.18033780      -2.81422070      -7.21374039
H       -1.56676791      -4.05999456      -5.62333884
C       -1.02024106      -1.49533534      -9.39234971
C       -0.33130628      -0.89588894     -10.18004818
Br       0.78264300       0.07336518     -11.45368999
N       -2.59041010       8.78402894       9.50551165
C       -3.25439133       8.21264254       8.74481384
C       -4.05730081       7.48980381       7.80229153
C       -3.43160007       6.57956720       6.93973153
C       -4.15897543       5.83979755       6.01663527
N       -3.52181610       4.98840994       5.20074546
C       -4.26313650       4.26490805       4.30765031
C       -3.43581089       3.41110112       3.42429189
C       -2.30810501       2.74206374       3.94425010
C       -1.49151130       1.94038096       3.13995425
C       -1.79095261       1.79095261       1.79095261
C       -2.88588155       2.44952057       1.24025250
C       -3.68946734       3.26458522       2.04783030
C       -5.66215338       4.39211162       4.28083913
N       -6.29758382       5.28468476       5.09835158
C       -5.55611315       6.00011415       5.95408885
C       -6.17550843       6.91103868       6.79893311
C       -5.44107401       7.66412021       7.72440050
C       -6.13749392       8.59618750       8.56404187
N       -6.71546157       9.34759800       9.23002179
C       -6.60123601       3.61058084       3.44956579
C       -7.65935913       4.25930748       2.78150504
C       -8.57849943       3.54862744       2.00370141
C       -8.45390001       2.16909415       1.88276205
C       -7.42901540       1.49623079       2.54196075
C       -6.51801199       2.21156927       3.32867931
H       -2.35161795       6.43602505       6.98208376
H       -2.05056235       2.85250517       4.99739495
H       -0.62714320       1.44687001       3.57723155
H       -3.12026413       2.34539852       0.18354246
H       -4.51787911       3.78914788       1.57459703
H       -7.25771715       7.02761574       6.73002493
H       -7.77859392       5.33829740       2.87608338
H       -9.38554207       4.08144888       1.50748570
H       -7.33282159       0.41647646       2.45900084
H       -5.74279453       1.65470976       3.85259702
C       -9.39544083       1.43309458       1.07939071
C      -10.18398126       0.81669493       0.40656721
Br     -11.45898445      -0.17997116      -0.68133148
N        9.56238511      -2.59763217       8.71993341
C        8.79034730      -3.25975163       8.16174878
C        7.83381826      -4.06049279       7.45508511
C        6.96863858      -3.43521011       6.54705011
C        6.03207119      -4.16075946       5.82257760
N        5.21420905      -3.52391121       4.97285125
C        4.30766295      -4.26353321       4.26449871
C        3.42406362      -3.43593116       3.41120912
C        3.94813674      -2.31929570       2.72698642
C        3.14397818      -1.50267901       1.92518932
C        1.79095261      -1.79095261       1.79095261
C        1.23634439      -2.87462496       2.46468528
C        2.04402834      -3.67814227       3.27971225
C        4.26917373      -5.66101269       4.40491772
N        5.08905637      -6.29576866       5.29579512
C        5.95817427      -5.55572400       5.99641787
C        6.80570405      -6.17453107       6.90524509
C        7.74483077      -5.44182290       7.64294106
C        8.58664622      -6.13740539       8.57367169
N        9.25422781      -6.71459522       9.32425834
C        3.42208785      -6.59948706       3.63980774
C        2.75037602      -7.64535834       4.30443728
C        1.95759595      -8.56373687       3.60949546
C        1.82501323      -8.45070742       2.23003556
C        2.48733428      -7.43821146       1.54166120
C        3.28899694      -6.52800902       2.24125461
H        7.01958321      -2.35703256       6.39311099
H        5.00458388      -2.07053066       2.82534793
H        3.58458520      -0.64697823       1.41968133
H        0.17660388      -3.10014072       2.37246051
H        1.56808703      -4.49727074       3.81626623
H        6.72793510      -7.25493653       7.03248619
H        2.85386090      -7.75554180       5.38357200
H        1.45894723      -9.36120889       4.15432053
H        2.39524794      -7.35118184       0.46186910
H        3.81482972      -5.76283745       1.67243414
C        1.00622680      -9.39148009       1.51021922
C        0.32049317     -10.17937720       0.90737304
Br      -0.78828013     -11.45334019      -0.06737825
C       -0.00445707       0.01189536      -1.78238275
H       -0.66409135       0.67374010      -2.43557963
H        0.65740317      -0.63156657      -2.45157240
C       -0.90989263      -0.90692880      -0.91072765
C        0.90977584       0.90977584      -0.90977584
C       -0.00465871       1.77757030       0.00794375
H       -0.66225468       2.44313916      -0.64384735
H        0.64322798       2.43503045       0.67728295
C       -1.78241447       0.00034974      -0.00472694
H       -2.45427497      -0.65498947       0.64260836
H       -2.43311707       0.67328779      -0.65473579
C       -0.91132561       0.90220522       0.91563759
C       -0.01476271      -0.02253852       1.78660255
H       -0.67934791      -0.69751639       2.42135241
H        0.63392994       0.61504881       2.47327442
C        0.01484550      -1.77751727      -0.01636693
H        0.67870853      -2.42144646      -0.68295456
H       -0.62264859      -2.45592969       0.64226336
C        1.78714474       0.01002794       0.00389507
H        2.44202412       0.67113390       0.66197326
H        2.45385902      -0.65136977      -0.64189061
C        0.91606151      -0.90478549       0.90901405
