194
Properties=species:S:1:pos:R:3 pbc="F F F"
C        2.93627360       9.51681401      -4.76398422
O        3.26003924       8.14282910      -4.58097110
C        4.01003892       7.81369731      -3.48158432
C        4.41217957       8.72114012      -2.49531090
C        5.19045570       8.29561476      -1.41492813
C        5.57848301       6.95848490      -1.30702683
C        5.20338835       6.05496710      -2.30744299
C        4.39297753       6.46070578      -3.38567246
C        3.99808849       5.48293909      -4.48023089
O        4.29274121       4.11502214      -4.16334052
C        3.39866232       3.41212437      -3.40510546
C        3.96321701       2.38126342      -2.64516208
C        3.16575384       1.57714193      -1.82895207
C        1.79134938       1.79134938      -1.79134938
C        1.21456188       2.79914810      -2.56236143
C        2.01937602       3.61150803      -3.37010892
C        6.42531768       6.55727212      -0.14573482
O        7.21572472       7.37884475       0.29792499
N        6.25231485       5.26057011       0.29998981
C        6.94756264       4.61570638       1.35365804
C        6.89618260       3.21589729       1.35929822
F        6.19588861       2.58342038       0.40176059
C        7.57558099       2.46200202       2.31320201
F        7.51240937       1.12369787       2.25523761
C        8.31202373       3.09554732       3.30634551
Br       9.24282737       2.08273996       4.60262352
C        8.34179137       4.48634682       3.34131245
F        9.01011887       5.12243448       4.31638339
C        7.66366617       5.24142127       2.38123136
F        7.65584844       6.57007228       2.54020005
H        2.37918401       9.60651268      -5.70152535
H        3.83987567      10.12893230      -4.85495728
H        2.29069612       9.87865819      -3.95715600
H        4.14491369       9.77228525      -2.53686399
H        5.50223036       9.01612046      -0.66012848
H        5.56794908       5.03250548      -2.28089603
H        4.60624140       5.72104939      -5.36135383
H        2.95528545       5.61598140      -4.78224940
H        5.03581871       2.20529923      -2.68550478
H        3.62473509       0.78882992      -1.23819301
H        0.13875735       2.95574085      -2.55067703
H        1.52993052       4.36639998      -3.97551822
H        5.63750107       4.65508329      -0.23450274
C       -3.40905615      -9.63665169      -4.17136398
O       -3.61393606      -8.22835928      -4.14154410
C       -4.42229994      -7.73049497      -3.15252564
C       -4.99480613      -8.50007029      -2.13375417
C       -5.82026610      -7.90598115      -1.17475133
C       -6.08581962      -6.53582079      -1.22235433
C       -5.53926666      -5.76912590      -2.25740588
C       -4.68023074      -6.34620754      -3.21291748
C       -4.09865330      -5.51668802      -4.34591716
O       -4.28699187      -4.10408570      -4.18002631
C       -3.39939237      -3.41262967      -3.40387011
C       -3.92661459      -2.26792434      -2.79510358
C       -3.13015484      -1.46205602      -1.97963697
C       -1.79134938      -1.79134938      -1.79134938
C       -1.24880916      -2.91532627      -2.41193598
C       -2.05409199      -3.72790419      -3.21899679
C       -6.98868890      -5.95204163      -0.18759409
O       -7.89031344      -6.65462952       0.24829848
N       -6.73149994      -4.63866444       0.15726923
C       -7.45119457      -3.83695422       1.07853782
C       -7.26608204      -2.45301870       0.96631907
F       -6.42693156      -1.97945130       0.02883445
C       -7.95082443      -1.55419208       1.78063550
F       -7.75435983      -0.23839110       1.61188131
C       -8.82904125      -2.02222344       2.75003914
Br      -9.76816584      -0.81170412       3.85692615
C       -8.99541951      -3.39521480       2.90380857
F       -9.80476041      -3.87347875       3.86206919
C       -8.31151121      -4.29569319       2.08334832
F       -8.44551922      -5.59843165       2.35823019
H       -2.78311982      -9.86463336      -5.03946886
H       -4.35587901     -10.17307367      -4.29481257
H       -2.87453514      -9.97441144      -3.27756372
H       -4.82729255      -9.56970648      -2.05706390
H       -6.26489281      -8.52040265      -0.39318384
H       -5.80469071      -4.72084068      -2.35581921
H       -4.64726978      -5.78420712      -5.25716772
H       -3.05103705      -5.76909985      -4.53337936
H       -4.96962402      -2.00327849      -2.95372020
H       -3.56119926      -0.58336979      -1.50718897
H       -0.19824744      -3.16380334      -2.28312444
H       -1.58834274      -4.57753561      -3.70597038
H       -6.01679703      -4.14366370      -0.36662637
C       -1.97966148       6.64953011       8.58788023
O       -2.52639410       6.02703431       7.43041103
C       -2.38506811       6.68450951       6.23574293
C       -1.67969395       7.88122120       6.06771544
C       -1.60191723       8.48817535       4.81090601
C       -2.22938352       7.90832395       3.70628727
C       -2.96078063       6.72777147       3.87724634
C       -3.02258738       6.08680229       5.12996610
C       -3.82940365       4.81271991       5.31913492
O       -4.26443671       4.21913057       4.08753659
C       -3.39853443       3.40535754       3.41200018
C       -3.59884546       3.36336257       2.02743449
C       -2.79092064       2.56777314       1.21315405
C       -1.79134938       1.79134938       1.79134938
C       -1.59817553       1.80623350       3.17166238
C       -2.40245926       2.61502646       3.98350725
C       -2.13380911       8.60458270       2.38993281
O       -2.07910257       9.82669778       2.39084413
N       -2.15079489       7.78437793       1.27772233
C       -2.10964400       8.18220031      -0.08223333
C       -2.53854982       7.22988487      -1.01565302
F       -2.93702095       6.02168362      -0.58115616
C       -2.59080301       7.51212585      -2.37854786
F       -3.03449037       6.57103758      -3.22465833
C       -2.19163560       8.75734523      -2.84775529
Br      -2.26371600       9.15366764      -4.69443983
C       -1.72406954       9.70265598      -1.93989978
F       -1.29153891      10.89744938      -2.37281833
C       -1.67643803       9.41999221      -0.57257416
F       -1.12101955      10.34038089       0.22432023
H       -2.21801229       6.01920551       9.45000425
H       -2.43073121       7.63247444       8.76055961
H       -0.88930258       6.71939558       8.51781215
H       -1.18197044       8.37702155       6.89507094
H       -1.05605197       9.42384082       4.69858651
H       -3.52300243       6.31162145       3.04672672
H       -4.74550673       5.08685263       5.85628526
H       -3.30440773       4.09410624       5.95500228
H       -4.38929187       3.95985204       1.57747881
H       -2.95549809       2.55730350       0.13895642
H       -0.83146528       1.18530379       3.62840616
H       -2.23891819       2.57805654       5.05487400
H       -2.31026867       6.79269835       1.42412007
C        2.36943531      -5.68505168       9.16258483
O        2.81103314      -5.31057057       7.86223573
C        2.40459725      -6.09030028       6.81042302
C        1.53067520      -7.17752800       6.92042740
C        1.18369590      -7.92559645       5.79170623
C        1.70680101      -7.59820440       4.53898934
C        2.60453503      -6.53037443       4.43088897
C        2.93972295      -5.74709641       5.55253640
C        3.92640662      -4.59670829       5.43814357
O        4.24351863      -4.24332333       4.08426192
C        3.39968288      -3.40344714       3.41276214
C        3.39106657      -3.57486138       2.02371457
C        2.58055358      -2.77985628       1.21143798
C        1.79134938      -1.79134938       1.79134938
C        1.80987715      -1.59502113       3.17117314
C        2.61471656      -2.40272755       3.98354886
C        1.32159348      -8.43888368       3.36784746
O        1.10739119      -9.62763472       3.56161857
N        1.27713376      -7.78428665       2.15147474
C        0.97786957      -8.34662186       0.88511955
C        1.38146810      -7.60167744      -0.23036387
F        1.99674564      -6.42151520      -0.04071244
C        1.18845883      -8.06536722      -1.52944505
F        1.61832594      -7.32218259      -2.55963891
C        0.56235628      -9.28625223      -1.74738297
Br       0.30025929      -9.92834356      -3.50565904
C        0.11792347     -10.02182358      -0.65292131
F       -0.52871533     -11.18346905      -0.83858376
C        0.31618894      -9.55783902       0.64982812
F       -0.22788483     -10.27024406       1.64336144
H        2.81682014      -4.99040120       9.88000071
H        2.70824782      -6.69376320       9.42175424
H        1.28148521      -5.59704404       9.24798105
H        1.10359550      -7.47876592       7.87170150
H        0.50882923      -8.77401107       5.89563900
H        3.08383969      -6.31737765       3.48013325
H        4.86937460      -4.93378316       5.88548686
H        3.60325438      -3.72935105       6.02091082
H        4.01856397      -4.33846341       1.56959533
H        2.57994192      -2.93589942       0.13591668
H        1.20987775      -0.81019095       3.62510652
H        2.62215328      -2.20074248       5.04895297
H        1.58603720      -6.81781164       2.12323825
C       -0.00445707       0.01189536      -1.78238275
H       -0.66409135       0.67374010      -2.43557963
H        0.65740317      -0.63156657      -2.45157240
C       -0.90989263      -0.90692880      -0.91072765
C        0.90977584       0.90977584      -0.90977584
C       -0.00465871       1.77757030       0.00794375
H       -0.66225468       2.44313916      -0.64384735
H        0.64322798       2.43503045       0.67728295
C       -1.78241447       0.00034974      -0.00472694
H       -2.45427497      -0.65498947       0.64260836
H       -2.43311707       0.67328779      -0.65473579
C       -0.91132561       0.90220522       0.91563759
C       -0.01476271      -0.02253852       1.78660255
H       -0.67934791      -0.69751639       2.42135241
H        0.63392994       0.61504881       2.47327442
C        0.01484550      -1.77751727      -0.01636693
H        0.67870853      -2.42144646      -0.68295456
H       -0.62264859      -2.45592969       0.64226336
C        1.78714474       0.01002794       0.00389507
H        2.44202412       0.67113390       0.66197326
H        2.45385902      -0.65136977      -0.64189061
C        0.91606151      -0.90478549       0.90901405
