161
Properties=species:S:1:pos:R:3 pbc="F F F"
C        0.00000000       0.00000000       0.00000000
C        0.88269507       0.88269507      -0.88269507
C        2.15349338       0.44742653      -1.25258025
C        2.95406643       1.26070088      -2.06072172
C        2.49309178       2.50717861      -2.49482917
C        1.21605850       2.92955853      -2.11664466
C        0.40846115       2.11975074      -1.31222633
N        3.34761825       3.26507647      -3.29511751
C        3.20887029       4.54387974      -3.77783912
O        2.25862710       5.30501311      -3.56007699
C        4.42437300       4.99430336      -4.60550855
N        5.22794232       3.86106728      -5.13966183
N        5.91223354       3.12347600      -4.07173514
N        7.33312649       3.23058939      -4.28186571
C        7.56465269       4.20004619      -5.34300692
H        7.93202379       5.15932326      -4.96019809
C        8.47057387       3.70549575      -6.43704987
O        9.68307297       3.93065958      -6.45487929
N        7.70848308       3.12205556      -7.43769031
C        8.23981508       2.39490148      -8.55713215
C        9.62104554       2.16987358      -8.70752973
C       10.15313680       1.49087638      -9.81241559
C        9.30936300       0.99272043     -10.79492056
C        7.93775536       1.16251175     -10.65172950
Br       6.77695579       0.45589974     -11.97120114
C        7.40853659       1.84372864      -9.54871135
C        6.39038689       3.54473508      -7.32164079
O        5.51135766       3.48193103      -8.18752219
C        6.25398490       4.38008832      -6.05702764
H        6.10421404       5.42028544      -6.37529973
H        2.53867021      -0.51202052      -0.92378282
H        3.95273867       0.93312679      -2.35148040
H        0.83070661       3.88825726      -2.44748806
H       -0.58007209       2.47064236      -1.03484802
H        4.29235324       2.90713547      -3.58824494
H        5.03079466       5.67076091      -3.99071439
H        4.00990837       5.55956142      -5.44995813
H       10.33154864       2.51465305      -7.96238945
H       11.22817629       1.35566626      -9.88702659
H        9.72303973       0.46739797     -11.64900876
H        6.32856663       1.91630184      -9.47093213
C       -0.88269507      -0.88269507      -0.88269507
C       -1.78806393      -1.76637181      -0.29906442
C       -2.59212846      -2.56960428      -1.11375629
C       -2.49100599      -2.49776177      -2.50633179
C       -1.57927412      -1.60596573      -3.07702184
C       -0.77509351      -0.79674348      -2.26860122
N       -3.32196023      -3.33119253      -3.25465947
C       -3.37309040      -3.54694664      -4.61055210
O       -2.63614630      -3.02928731      -5.45828358
C       -4.43919786      -4.58466489      -5.00032216
N       -5.50220653      -4.75404804      -3.97241686
N       -4.98564328      -5.37451535      -2.74728605
N       -5.66238068      -6.63092404      -2.55227686
C       -6.44574327      -6.91618669      -3.74577584
H       -5.98866946      -7.69254233      -4.37033335
C       -7.88201061      -7.26456620      -3.46654268
O       -8.28038574      -8.42704892      -3.36117718
N       -8.65150891      -6.11180179      -3.50491825
C      -10.03450583      -6.03380798      -3.12353490
C      -10.72921009      -7.14945719      -2.61978157
C      -12.08700775      -7.09340491      -2.27601610
C      -12.78854818      -5.90320758      -2.40524823
C      -12.11806749      -4.77423634      -2.85969279
Br     -13.05988851      -3.13743633      -3.00673183
C      -10.76241169      -4.83318357      -3.20538132
C       -7.95940611      -5.11560941      -4.18174725
O       -8.43122844      -4.08220181      -4.66738063
C       -6.56202039      -5.62393164      -4.50514884
H       -6.52362147      -5.78561546      -5.59056228
H       -1.88171597      -1.84745644       0.77873990
H       -3.29995080      -3.26929613      -0.66809892
H       -1.48758316      -1.52392368      -4.15494510
H       -0.07690531      -0.11114184      -2.73737114
H       -4.02015100      -3.97095961      -2.79662304
H       -3.93444785      -5.53217127      -5.22565084
H       -4.89832790      -4.20084572      -5.92025429
H      -10.23133907      -8.10328349      -2.47396858
H      -12.57939641      -7.98721939      -1.90425333
H      -13.83911559      -5.86183140      -2.13849948
H      -10.28158463      -3.91301310      -3.52120286
C       -0.88269507       0.88269507       0.88269507
C       -0.30432444       1.86331216       1.68586356
C       -1.11902941       2.66678623       2.48967339
C       -2.50594237       2.49058495       2.49857222
C       -3.07148086       1.50384741       1.68693342
C       -2.26333081       0.69961162       0.87749579
N       -3.25437305       3.32591395       3.32752523
C       -4.59818285       3.31898568       3.61342061
O       -5.43024655       2.51257442       3.18089622
C       -4.99129349       4.41826961       4.61462181
N       -4.01507592       5.54023973       4.67335579
N       -2.73356099       5.12156716       5.25231654
N       -2.51122824       5.87441200       6.45994135
C       -3.72914971       6.60977277       6.76878332
H       -4.28739000       6.16392486       7.60023028
C       -3.51052918       8.07522230       7.02736801
O       -3.36734919       8.54079690       8.16046575
N       -3.64959978       8.77823281       5.84039636
C       -3.34811445      10.17273233       5.67100192
C       -2.82609395      10.95172369       6.72063120
C       -2.55963210      12.32035066       6.57644600
C       -2.78755031      12.94890392       5.36054976
C       -3.26239383      12.19587856       4.29372423
Br      -3.54399236      13.03896400       2.62110030
C       -3.53074069      10.82944544       4.44079044
C       -4.33822367       7.99941637       4.91912272
O       -4.90107359       8.38908299       3.89065431
C       -4.55902380       6.61682875       5.51524831
H       -5.63103844       6.53157719       5.73718358
H        0.76957250       2.01640846       1.70359656
H       -0.67700165       3.43337027       3.12697394
H       -4.14565166       1.35264882       1.66815145
H       -2.72820490      -0.05778894       0.25500233
H       -2.80255513       4.08028611       3.90489241
H       -5.14005283       3.95462929       5.59758784
H       -5.95320619       4.80813792       4.25808381
H       -2.60479306      10.51433379       7.68946430
H       -2.16967296      12.87881221       7.42238397
H       -2.58051345      14.00799751       5.25093551
H       -3.86689270      10.28395835       3.56494956
C        0.88269507      -0.88269507       0.88269507
C        1.38982786      -0.38324336       2.08042894
C        2.19580073      -1.19753184       2.88215645
C        2.50128715      -2.50415856       2.48965384
C        1.98446072      -2.99137370       1.28642727
C        1.17443326      -2.18418899       0.48181597
N        3.31362565      -3.25642123       3.33776535
C        3.85152527      -4.50942077       3.16964310
O        3.72408473      -5.22831569       2.17131677
C        4.71920261      -4.94113489       4.36384740
N        4.40610988      -4.20410923       5.61845232
N        4.78587129      -2.78951376       5.53205964
N        5.79006664      -2.52528667       6.53022828
C        6.20607445      -3.79643692       7.10519443
H        7.19066613      -4.11625589       6.74462312
C        6.17762361      -3.82681516       8.60868072
O        7.17135383      -3.59560380       9.30165422
N        4.94246987      -4.28893308       9.03682599
C        4.49525224      -4.29441958      10.40217689
C        5.28432381      -3.77071893      11.44340610
C        4.87245455      -3.80102478      12.78294943
C        3.63851682      -4.33937732      13.11910984
C        2.81948382      -4.82522280      12.10728999
Br       1.11934002      -5.53071905      12.55399760
C        3.23415215      -4.79670109      10.77012333
C        4.30983274      -4.95319226       7.99373777
O        3.36063833      -5.73919945       8.08097310
C        5.15247523      -4.80309779       6.73552784
H        5.58850257      -5.78822725       6.52306939
H        1.17442887       0.62923391       2.40523754
H        2.60333110      -0.81535005       3.81866471
H        2.19859150      -4.00465251       0.96320793
H        0.78417318      -2.58786921      -0.44662410
H        3.66323100      -2.87206861       4.25243404
H        5.77403502      -4.83679982       4.08143512
H        4.49747139      -6.00498714       4.51696939
H        6.24961551      -3.31562334      11.24335230
H        5.52553977      -3.39529405      13.55003531
H        3.32153319      -4.36170084      14.15621244
H        2.53962097      -5.15769531      10.01848433
