117
Properties=species:S:1:pos:R:3 pbc="F F F"
C        0.00000000       0.00000000       0.00000000
C        0.87873340       0.87873340      -0.87873340
C        1.50669763       2.02300497      -0.45960973
S        2.40889372       2.73386716      -1.72802864
C        1.94913224       1.50795876      -2.84160260
C        1.12159786       0.57408523      -2.23917271
C        2.39463501       1.50019526      -4.23492411
O        1.97688342       0.65985277      -5.02834602
N        3.31484981       2.47475679      -4.55608832
C        3.96202538       2.72842228      -5.78929927
C        3.64592264       2.05696308      -6.97114137
C        4.33749836       2.34889898      -8.14199027
C        5.34936019       3.30882294      -8.13186858
C        5.68171612       4.00594364      -6.94428613
C        6.69477920       4.98698808      -6.84479501
C        6.95606563       5.62417885      -5.63764807
C        6.19541850       5.27061227      -4.54611060
N        5.22038217       4.33899852      -4.58614516
C        4.96582767       3.71174949      -5.76012609
H        1.48546564       2.47891537       0.52061618
H        0.72183108      -0.28244451      -2.77105223
H        3.64146139       3.07781773      -3.80222085
H        2.86303967       1.30624100      -7.01321876
H        4.07905583       1.81727791      -9.05532913
H        7.29488133       5.26473333      -7.70775130
H        7.73335798       6.37545022      -5.55660455
H        6.35289503       5.73769824      -3.57795939
C        6.02461943       3.54376876      -9.38183875
C        6.59014905       3.74053588     -10.42868877
Br       7.50456260       4.05869168     -12.12135670
C       -0.87873340      -0.87873340      -0.87873340
C       -1.23744571      -0.58338327      -2.16848335
S       -2.22608347      -1.81206545      -2.83264060
C       -2.17782997      -2.73647159      -1.38439205
C       -1.41152771      -2.10589365      -0.41743444
C       -2.87718868      -4.01309699      -1.23946871
O       -2.89641201      -4.60564408      -0.16302612
N       -3.47009084      -4.48472492      -2.39087916
C       -4.19281113      -5.68320840      -2.60372739
C       -4.53740442      -6.56133238      -1.57529028
C       -5.23482264      -7.72949552      -1.86406944
C       -5.58430297      -8.02386676      -3.18188199
C       -5.24927477      -7.14307690      -4.23959421
C       -5.55888219      -7.36696026      -5.60071984
C       -5.19229269      -6.44844423      -6.57715563
C       -4.52190289      -5.31541598      -6.17482250
N       -4.19889908      -5.05571499      -4.89091178
C       -4.55012627      -5.95122160      -3.93635538
H       -0.97268641       0.28489455      -2.75597298
H       -1.25321219      -2.52677943       0.56955282
H       -3.33460638      -3.94328031      -3.24361328
H       -4.28218674      -6.36084511      -0.53946758
H       -5.49666797      -8.40366108      -1.05133382
H       -6.08801968      -8.26253858      -5.91680770
H       -5.42592094      -6.61731993      -7.62217188
H       -4.21350755      -4.56142336      -6.89362175
C       -6.29453627      -9.25775955      -3.39793112
C       -6.88935666     -10.29114477      -3.57887227
Br      -7.85113093     -11.96204126      -3.87143880
C       -0.87873340       0.87873340       0.87873340
C       -1.13263369       0.65027684       2.20640180
S       -2.15863122       1.85559193       2.85656637
C       -2.26723716       2.67945881       1.35199763
C       -1.52316377       2.03448736       0.37720467
C       -3.06055202       3.89549425       1.17370811
O       -3.18962243       4.41019118       0.06526861
N       -3.60921145       4.40604691       2.33043656
C       -4.39741170       5.56737505       2.51496018
C       -4.86694935       6.34876214       1.45831561
C       -5.62299417       7.48674998       1.71864346
C       -5.90643098       7.84791960       3.03570113
C       -5.44435059       7.06527560       4.12231969
C       -5.68046215       7.36181062       5.48428952
C       -5.18959302       6.53805087       6.49024865
C       -4.47017209       5.42549967       6.11646962
N       -4.21329756       5.09947427       4.83275402
C       -4.68588445       5.90281817       3.84900063
H       -0.77160173      -0.15674693       2.82891003
H       -1.45793375       2.39584748      -0.64334244
H       -3.38229085       3.93432473       3.20488440
H       -4.66567982       6.09438071       0.42243890
H       -5.98226517       8.08522916       0.88416854
H       -6.24848258       8.24111953       5.77776385
H       -5.36660520       6.76298094       7.53582661
H       -4.06511049       4.74408424       6.85935793
C       -6.68442757       9.04552270       3.22027668
C       -7.33599971      10.04851529       3.37485869
Br      -8.38953676      11.67026948       3.62480474
C        0.87873340      -0.87873340       0.87873340
C        1.20457027      -2.18153016       0.60321191
S        2.21425540      -2.83733464       1.81919948
C        2.20683330      -1.37288191       2.71897840
C        1.44346294      -0.40476076       2.08663210
C        2.92343657      -1.22111496       3.98520284
O        2.82562087      -0.19111999       4.64834135
N        3.71157120      -2.29504628       4.33907744
C        4.54552454      -2.46375105       5.47047135
C        4.59681292      -1.55171368       6.52550049
C        5.45430229      -1.77696768       7.59711764
C        6.26530197      -2.91162361       7.61312613
C        6.22416371      -3.85270392       6.55507826
C        7.01441598      -5.02308287       6.48906345
C        6.91088963      -5.89512053       5.41188239
C        6.01350919      -5.58286994       4.41576225
N        5.23935728      -4.47799994       4.42816863
C        5.34088807      -3.62253700       5.47427819
H        0.90590681      -2.78247484      -0.24461682
H        1.31207053       0.59291109       2.49127936
H        3.76977622      -3.07091362       3.68081014
H        3.97772044      -0.66029679       6.54448221
H        5.48244261      -1.05697924       8.41224102
H        7.72296413      -5.26797057       7.27643126
H        7.51650640      -6.79251098       5.35639536
H        5.88770863      -6.22920540       3.55163863
C        7.13293242      -3.06520878       8.75208575
C        7.85957291      -3.19383635       9.70596443
Br       9.03448914      -3.40181627      11.24830557
