130
Properties=species:S:1:pos:R:3 pbc="F F F"
C        1.78863742       1.78863742      -1.78863742
C        2.41660166       2.93290899      -1.36951376
S        3.31879774       3.64377118      -2.63793266
C        2.85903627       2.41786278      -3.75150663
C        2.03150188       1.48398925      -3.14907674
C        3.30453903       2.41009929      -5.14482813
O        2.88678745       1.56975679      -5.93825005
N        4.22475383       3.38466081      -5.46599235
C        4.87192940       3.63832631      -6.69920330
C        4.55582666       2.96686710      -7.88104539
C        5.24740238       3.25880300      -9.05189430
C        6.25926422       4.21872696      -9.04177261
Br       7.15243853       4.52949290     -10.69512465
C        6.59162014       4.91584766      -7.85419015
C        7.60468323       5.89689210      -7.75469904
C        7.86596966       6.53408287      -6.54755209
C        7.10532253       6.18051630      -5.45601462
N        6.13028619       5.24890255      -5.49604919
C        5.87573169       4.62165352      -6.67003011
H        2.39536966       3.38881940      -0.38928784
H        1.63173510       0.62745951      -3.68095626
H        4.55136541       3.98772176      -4.71212488
H        3.77294370       2.21614503      -7.92312279
H        4.98895985       2.72718194      -9.96523316
H        8.20478536       6.17463735      -8.61765533
H        8.64326200       7.28535424      -6.46650858
H        7.26279906       6.64760226      -4.48786341
C       -1.78863742      -1.78863742      -1.78863742
C       -2.17568260      -1.47702806      -3.06631375
S       -3.15423202      -2.71137297      -3.73489660
C       -3.06356649      -3.66023147      -2.30460771
C       -2.29125063      -3.03315936      -1.34015788
C       -3.73751277      -4.95160610      -2.17034758
O       -3.72686701      -5.56334998      -1.10457729
N       -4.34261643      -5.41339412      -3.31939644
C       -5.04774099      -6.62074433      -3.54097368
C       -5.35817482      -7.52298363      -2.52258072
C       -6.03990887      -8.69822455      -2.81996627
C       -6.40779966      -8.97548609      -4.13647803
Br      -7.32321361     -10.61891331      -4.43492916
C       -6.10750216      -8.07023619      -5.18391960
C       -6.43755940      -8.27554827      -6.54316670
C       -6.10491447      -7.33345349      -7.50923667
C       -5.44753414      -6.19583141      -7.09848789
N       -5.10610863      -5.95310617      -5.81602312
C       -5.42419708      -6.87153526      -4.87168298
H       -1.93694349      -0.59386846      -3.64266495
H       -2.10776955      -3.46851764      -0.36386368
H       -4.23210615      -4.85459986      -4.16450604
H       -5.08793357      -7.33628577      -1.48799217
H       -6.27511249      -9.39126525      -2.01499720
H       -6.95637935      -9.17477814      -6.86592054
H       -6.35429783      -7.48799850      -8.55282849
H       -5.16551585      -5.42381238      -7.80893650
C       -1.78863742       1.78863742       1.78863742
C       -2.09555663       1.52499952       3.09846826
S       -3.10264786       2.74261652       3.75523722
C       -3.13191395       3.61934885       2.27714287
C       -2.37659958       2.98194199       1.30602630
C       -3.87771172       4.86723407       2.11452066
O       -3.95134529       5.42267255       1.02077644
N       -4.44857313       5.35759411       3.26923976
C       -5.20357324       6.53858441       3.46730136
C       -5.61019129       7.37040459       2.42314328
C       -6.33645930       8.52445163       2.69718876
C       -6.65289331       8.85113355       4.01573693
Br      -7.63646646      10.46070441       4.27988521
C       -6.25479770       8.01731710       5.08954315
C       -6.52765793       8.27631466       6.45230177
C       -6.09939809       7.40312283       7.44508370
C       -5.40495969       6.27951972       7.05737404
N       -5.11503576       5.98774654       5.77245563
C       -5.52647824       6.83917754       4.80175954
H       -1.78322712       0.68575545       3.70449433
H       -2.26428442       3.37460542       0.30126104
H       -4.26771587       4.84949958       4.13399659
H       -5.38195657       7.14385952       1.38639542
H       -6.64667285       9.16238386       1.87231823
H       -7.07586709       9.16440331       6.75680764
H       -6.30471740       7.59909238       8.49131505
H       -5.04861513       5.56021791       7.78943169
C        1.78863742      -1.78863742       1.78863742
C        2.18008458      -3.06436944       1.47457039
S        3.16647082      -3.72949085       2.70453992
C        3.06077917      -2.30583884       3.66178766
C        2.28345603      -1.34360068       3.03751117
C        3.71845292      -2.17876612       4.96224741
O        3.55045259      -1.18249771       5.66184399
N        4.53624615      -3.23387220       5.30528864
C        5.33006191      -3.41627546       6.46312163
C        5.30001549      -2.54826909       7.55545459
C        6.12213612      -2.78364734       8.65231622
C        6.97900585      -3.88418219       8.65657574
Br       8.07221549      -4.10410280      10.20073778
C        7.02053357      -4.78064311       7.56048128
C        7.86152246      -5.91421699       7.48053491
C        7.83862890      -6.74347300       6.36550272
C        6.96995399      -6.42605085       5.34584861
N        6.14997547      -5.35495798       5.37030448
C        6.17283540      -4.54101721       6.45356271
H        1.94165112      -3.64058563       0.59124015
H        2.09377256      -0.37004601       3.47633230
H        4.65377643      -3.97825866       4.61917696
H        4.64357689      -1.68425991       7.58437472
H        6.08680847      -2.09816913       9.49639734
H        8.54730077      -6.16322707       8.28655020
H        8.48334589      -7.61245006       6.29932887
H        6.90666387      -7.03988949       4.45171137
C       -0.00445707       0.01189536      -1.78238275
H       -0.66409135       0.67374010      -2.43557963
H        0.65740317      -0.63156657      -2.45157240
C       -0.90989263      -0.90692880      -0.91072765
C        0.90977584       0.90977584      -0.90977584
C       -0.00465871       1.77757030       0.00794375
H       -0.66225468       2.44313916      -0.64384735
H        0.64322798       2.43503045       0.67728295
C       -1.78241447       0.00034974      -0.00472694
H       -2.45427497      -0.65498947       0.64260836
H       -2.43311707       0.67328779      -0.65473579
C       -0.91132561       0.90220522       0.91563759
C       -0.01476271      -0.02253852       1.78660255
H       -0.67934791      -0.69751639       2.42135241
H        0.63392994       0.61504881       2.47327442
C        0.01484550      -1.77751727      -0.01636693
H        0.67870853      -2.42144646      -0.68295456
H       -0.62264859      -2.45592969       0.64226336
C        1.78714474       0.01002794       0.00389507
H        2.44202412       0.67113390       0.66197326
H        2.45385902      -0.65136977      -0.64189061
C        0.91606151      -0.90478549       0.90901405
