138
Properties=species:S:1:pos:R:3 pbc="F F F"
C        1.79234012       1.79234012      -1.79234012
C        1.74300967       1.65039779      -3.17576790
C        2.54742330       2.45709384      -3.97714758
C        3.39903436       3.39927074      -3.39198472
C        3.46085339       3.54771980      -1.99818089
C        2.64028626       2.73203367      -1.20274817
C        4.34698235       4.52980516      -1.38451438
O        3.88763411       5.08807997      -0.22944495
N        4.79970690       5.99978618       0.25303461
C        5.82518476       6.00984731      -0.61591649
C        6.97396291       6.88904916      -0.38497682
C        7.43915025       7.10265565       0.92371927
C        8.53004561       7.94076960       1.16872941
C        9.16956873       8.57806594       0.10811544
C        8.70711253       8.38098653      -1.19102859
C        7.61353774       7.54950761      -1.44268036
C        5.58161575       5.07284087      -1.66589198
Cl       6.63002673       4.66965815      -2.94328314
H        1.08274552       0.92047454      -3.63742446
H        2.51018406       2.35716852      -5.05954402
H        4.00011286       4.02540632      -4.04788096
H        2.66536483       2.82368991      -0.11856757
H        6.95075455       6.61572825       1.76698223
H        8.87681020       8.09639672       2.18728431
H       10.01841462       9.22823955       0.30395962
H        7.25825910       7.43824576      -2.46311018
C        9.36228012       9.04531862      -2.28785051
C        9.91098297       9.60169674      -3.20643886
Br      10.79818907      10.50131311      -4.69171854
C       -1.79234012      -1.79234012      -1.79234012
C       -2.89266687      -2.43888656      -1.23762193
C       -3.69561903      -3.24120298      -2.04484271
C       -3.39327539      -3.39567597      -3.40133846
C       -2.28361144      -2.75274288      -3.97039976
C       -1.48624641      -1.94243861      -3.14638309
C       -1.96583085      -2.91073115      -5.38473989
O       -1.40184444      -1.82273034      -5.98058425
N       -1.15270627      -2.08453758      -7.30921461
C       -1.57430890      -3.34054700      -7.53609265
C       -1.44867573      -3.92645075      -8.87286241
C       -0.31968015      -3.63955807      -9.65884842
C       -0.18047291      -4.18299134     -10.93862155
C       -1.16953836      -5.01956355     -11.45041732
C       -2.29747266      -5.29933497     -10.68232003
C       -2.44610471      -4.75478501      -9.40483599
C       -2.08428813      -3.90753014      -6.32853033
Cl      -2.64636005      -5.49664394      -6.09996403
H       -3.13397539      -2.32267341      -0.18399572
H       -4.56130203      -3.74486469      -1.62072987
H       -4.05167845      -4.01482961      -4.00689208
H       -0.61885664      -1.43029222      -3.55847345
H        0.46347691      -2.98522459      -9.27775288
H        0.69860504      -3.95014934     -11.53437831
H       -1.05596898      -5.44058660     -12.44613896
H       -3.34997924      -4.96815124      -8.84148456
C       -3.32461531      -6.15773669     -11.21309724
C       -4.18484729      -6.87664814     -11.65762315
Br      -5.57576963      -8.03906714     -12.37638395
C       -1.79234012       1.79234012       1.79234012
C       -1.45286334       1.98883136       3.12748065
C       -2.25837800       2.79471517       3.92857155
C       -3.40041082       3.39761559       3.39226341
C       -3.75526648       3.20257198       2.04891563
C       -2.93112685       2.39252481       1.25141645
C       -4.94488680       3.83043412       1.48598097
O       -4.85329910       4.17980709       0.17205283
N       -6.02667002       4.76625130      -0.24646286
C       -6.84464044       4.78632667       0.81998145
C       -8.18914320       5.35606122       0.70278446
C       -8.92813180       5.16743694      -0.47748210
C      -10.21045734       5.70553330      -0.61390484
C      -10.77053519       6.44115095       0.42783309
C      -10.03979789       6.64280516       1.59652460
C       -8.75521845       6.11309120       1.73741606
C       -6.19687587       4.18281069       1.94066204
Cl      -6.86378498       3.89954618       3.47963687
H       -0.56606747       1.52378731       3.55078974
H       -1.99666178       2.95881657       4.97141824
H       -3.99705928       4.03538932       4.04095153
H       -3.17964522       2.22239633       0.20558076
H       -8.50659203       4.59766961      -1.30476108
H      -10.76854365       5.55145764      -1.53407869
H      -11.76884912       6.85675370       0.31709172
H       -8.19900494       6.31153253       2.64907756
C      -10.61432297       7.40973306       2.67139321
C      -11.09548772       8.05203517       3.57159568
Br     -11.87349043       9.09058337       5.02714693
C        1.79234012      -1.79234012       1.79234012
C        3.04251552      -2.19450958       1.33215025
C        3.84480423      -2.99749380       2.13936669
C        3.39257447      -3.39686258       3.40085276
C        2.13190815      -3.00166892       3.87317701
C        1.33609252      -2.18754631       3.05142927
C        1.65743168      -3.41539707       5.18847314
O        0.85931149      -2.51613472       5.82971281
N        0.47933660      -3.00928180       7.05784007
C        1.05471201      -4.21810576       7.17813079
C        0.84429836      -5.01349333       8.39019720
C       -0.40946103      -5.00277582       9.02477184
C       -0.63212276      -5.74963409      10.18457447
C        0.39683719      -6.51618388      10.72649816
C        1.64609350      -6.52281190      10.11022225
C        1.87750962      -5.77396156       8.95425453
C        1.80115406      -4.52052279       5.99867174
Cl       2.62554867      -5.96706896       5.65035039
H        3.40068837      -1.88714324       0.35281291
H        4.82598021      -3.31088377       1.79003261
H        4.05196576      -4.00872677       4.01270760
H        0.35353812      -1.86423049       3.38985370
H       -1.22617076      -4.40742315       8.61824818
H       -1.60764327      -5.72953815      10.66402774
H        0.21817072      -7.09621542      11.62830840
H        2.87002879      -5.77666776       8.51291849
C        2.71317091      -7.30860025      10.67367808
C        3.60684824      -7.96669799      11.14557234
Br       5.05184890      -9.03078638      11.90858544
C       -0.00445707       0.01189536      -1.78238275
H       -0.66409135       0.67374010      -2.43557963
H        0.65740317      -0.63156657      -2.45157240
C       -0.90989263      -0.90692880      -0.91072765
C        0.90977584       0.90977584      -0.90977584
C       -0.00465871       1.77757030       0.00794375
H       -0.66225468       2.44313916      -0.64384735
H        0.64322798       2.43503045       0.67728295
C       -1.78241447       0.00034974      -0.00472694
H       -2.45427497      -0.65498947       0.64260836
H       -2.43311707       0.67328779      -0.65473579
C       -0.91132561       0.90220522       0.91563759
C       -0.01476271      -0.02253852       1.78660255
H       -0.67934791      -0.69751639       2.42135241
H        0.63392994       0.61504881       2.47327442
C        0.01484550      -1.77751727      -0.01636693
H        0.67870853      -2.42144646      -0.68295456
H       -0.62264859      -2.45592969       0.64226336
C        1.78714474       0.01002794       0.00389507
H        2.44202412       0.67113390       0.66197326
H        2.45385902      -0.65136977      -0.64189061
C        0.91606151      -0.90478549       0.90901405
