130
Properties=species:S:1:pos:R:3 pbc="F F F"
C        1.79234012       1.79234012      -1.79234012
C        1.74300967       1.65039779      -3.17576790
C        2.54742330       2.45709384      -3.97714758
C        3.39903436       3.39927074      -3.39198472
C        3.46085339       3.54771980      -1.99818089
C        2.64028626       2.73203367      -1.20274817
C        4.34698235       4.52980516      -1.38451438
O        3.88763411       5.08807997      -0.22944495
N        4.79970690       5.99978618       0.25303461
C        5.82518476       6.00984731      -0.61591649
C        6.97396291       6.88904916      -0.38497682
C        7.43915025       7.10265565       0.92371927
C        8.53004561       7.94076960       1.16872941
C        9.16956873       8.57806594       0.10811544
C        8.70711253       8.38098653      -1.19102859
Br       9.56776174       9.25367453      -2.63184914
C        7.61353774       7.54950761      -1.44268036
C        5.58161575       5.07284087      -1.66589198
Cl       6.63002673       4.66965815      -2.94328314
H        1.08274552       0.92047454      -3.63742446
H        2.51018406       2.35716852      -5.05954402
H        4.00011286       4.02540632      -4.04788096
H        2.66536483       2.82368991      -0.11856757
H        6.95075455       6.61572825       1.76698223
H        8.87681020       8.09639672       2.18728431
H       10.01841462       9.22823955       0.30395962
H        7.25825910       7.43824576      -2.46311018
C       -1.79234012      -1.79234012      -1.79234012
C       -2.89877541      -2.43042286      -1.23997710
C       -3.70170256      -3.23276116      -2.04720100
C       -3.39324661      -3.39571719      -3.40132602
C       -2.27741979      -2.76136874      -3.96796555
C       -1.48012428      -1.95092832      -3.14401550
C       -1.95325058      -2.92821484      -5.37983647
O       -1.38067140      -1.84616724      -5.97832039
N       -1.12611115      -2.11604096      -7.30430635
C       -1.55297893      -3.37103141      -7.52693822
C       -1.42353870      -3.96440561      -8.86004457
C       -0.28909883      -3.68729765      -9.64169015
C       -0.14615780      -4.23797975     -10.91794825
C       -1.13687399      -5.07211183     -11.43053341
C       -2.27012498      -5.34219573     -10.66680694
Br      -3.62159958      -6.46648650     -11.36519933
C       -2.42247321      -4.79036067      -9.39289183
C       -2.07200084      -3.92921748      -6.31913027
Cl      -2.64336054      -5.51425560      -6.08535189
H       -3.14485066      -2.30758763      -0.18820623
H       -4.57210308      -3.72982722      -1.62496630
H       -4.05171793      -4.01460122      -4.00708099
H       -0.60803485      -1.44532493      -3.55426253
H        0.49544699      -3.03501978      -9.25992778
H        0.73712496      -4.01267357     -11.51037399
H       -1.02039050      -5.49880164     -12.42350240
H       -3.33028705      -4.99623120      -8.83309678
C       -1.79234012       1.79234012       1.79234012
C       -1.51334409       1.90482974       3.15100153
C       -2.31861091       2.71093087       3.95212294
C       -3.40012583       3.39802476       3.39213923
C       -3.69396381       3.28818228       2.02460800
C       -2.87051170       2.47678448       1.22777192
C       -4.82033031       4.00395770       1.43701389
O       -4.64353693       4.41250854       0.14911356
N       -5.76323576       5.07900328      -0.29578058
C       -6.63347190       5.08886774       0.72860892
C       -7.94032832       5.73271176       0.57494880
C       -8.62546133       5.64116513      -0.64853982
C       -9.87086325       6.25117332      -0.81995077
C      -10.44728180       6.96257518       0.22966225
C       -9.76913518       7.06811771       1.44187477
Br     -10.54549648       8.04250039       2.86528854
C       -8.52130352       6.46613291       1.61828928
C       -6.07531982       4.39798328       1.84704550
Cl      -6.83437720       4.07413092       3.33445990
H       -0.67374341       1.37406234       3.59283877
H       -2.10360160       2.80957192       5.01372307
H       -3.99744642       4.03312526       4.04282845
H       -3.07249927       2.37159424       0.16352881
H       -8.19017415       5.09179753      -1.48247111
H      -10.38735464       6.17186346      -1.77329549
H      -11.41677825       7.43439481       0.09152148
H       -8.00404927       6.59021174       2.56535402
C        1.79234012      -1.79234012       1.79234012
C        3.08388640      -2.10556486       1.37972409
C        3.88596269      -2.90881007       2.18689196
C        3.39238403      -3.39729258       3.40061320
C        2.09013292      -3.09220331       3.82441785
C        1.29465383      -2.27674691       3.00366737
C        1.57240902      -3.59900339       5.08988948
O        0.69600747      -2.77679955       5.73235201
N        0.28117991      -3.35336796       6.91191060
C        0.91339188      -4.53619902       7.00135765
C        0.68460298      -5.40474628       8.15863963
C       -0.59846550      -5.49139746       8.72515468
C       -0.83941165      -6.30937900       9.83211845
C        0.20021205      -7.05065798      10.38864920
C        1.47764489      -6.96113260       9.84035017
Br       2.89318061      -7.95907781      10.60102699
C        1.72702125      -6.14092565       8.73777881
C        1.73366995      -4.73707904       5.84959961
Cl       2.65063763      -6.11937993       5.47295047
H        3.47428356      -1.72865000       0.43771096
H        4.89888864      -3.15303104       1.87497691
H        4.05164706      -4.00674962       4.01500346
H        0.28037611      -2.02211478       3.30513142
H       -1.42413750      -4.91732711       8.30631096
H       -1.83764023      -6.36431262      10.25925022
H        0.00730653      -7.68627391      11.24911410
H        2.73934460      -6.06982202       8.35044840
C       -0.00445707       0.01189536      -1.78238275
H       -0.66409135       0.67374010      -2.43557963
H        0.65740317      -0.63156657      -2.45157240
C       -0.90989263      -0.90692880      -0.91072765
C        0.90977584       0.90977584      -0.90977584
C       -0.00465871       1.77757030       0.00794375
H       -0.66225468       2.44313916      -0.64384735
H        0.64322798       2.43503045       0.67728295
C       -1.78241447       0.00034974      -0.00472694
H       -2.45427497      -0.65498947       0.64260836
H       -2.43311707       0.67328779      -0.65473579
C       -0.91132561       0.90220522       0.91563759
C       -0.01476271      -0.02253852       1.78660255
H       -0.67934791      -0.69751639       2.42135241
H        0.63392994       0.61504881       2.47327442
C        0.01484550      -1.77751727      -0.01636693
H        0.67870853      -2.42144646      -0.68295456
H       -0.62264859      -2.45592969       0.64226336
C        1.78714474       0.01002794       0.00389507
H        2.44202412       0.67113390       0.66197326
H        2.45385902      -0.65136977      -0.64189061
C        0.91606151      -0.90478549       0.90901405
