161
Properties=species:S:1:pos:R:3 pbc="F F F"
C        0.00000000       0.00000000       0.00000000
C        0.88159803       0.88159803      -0.88159803
C        1.62449838       0.30733747      -1.90903114
C        2.42030543       1.11705459      -2.72814240
C        2.49645801       2.50175057      -2.51633460
C        1.73189391       3.06017776      -1.47869901
C        0.92749808       2.25519371      -0.66418025
C        3.29177335       3.37006098      -3.39613927
N        2.89471998       4.62769938      -3.62705349
N        3.71220712       5.10866907      -4.60034738
C        3.39872184       6.38163527      -5.16946182
C        2.64462911       7.29430848      -4.41171653
C        2.34459511       8.55999076      -4.91915251
C        2.77030145       8.91649288      -6.19598124
C        3.48593495       8.00466981      -6.96957910
C        3.79752035       6.73885947      -6.46298202
C        4.75279116       4.22370385      -4.88300118
C        5.89657968       4.46398814      -5.77023885
C        6.71276666       5.59474156      -5.62213269
C        7.78811074       5.81299624      -6.48984574
C        8.07099650       4.88589023      -7.49050996
C        7.28850051       3.74380081      -7.63418345
C        6.20281548       3.53781572      -6.77949247
C        4.50297030       3.11385408      -4.08825464
Cl       5.49448221       1.73272142      -3.93173364
H        1.58379703      -0.76287953      -2.09325200
H        2.95286741       0.64228096      -3.54720759
H        1.74694583       4.13489269      -1.30602935
H        0.33867890       2.71354028       0.12543771
H        2.30588826       7.04225128      -3.40809352
H        1.77877719       9.26566500      -4.31610141
H        2.53353819       9.90038614      -6.59292062
H        3.79510491       8.27550214      -7.97654923
H        4.31365716       6.04661988      -7.12043159
H        6.51383616       6.32534123      -4.83994278
H        8.39645127       6.70636242      -6.37407320
H        7.51101618       3.00960023      -8.40413062
H        5.59743873       2.64280231      -6.91082757
C        9.17926532       5.10921165      -8.38239996
C       10.10744045       5.29624334      -9.12935784
Br      11.60822114       5.59865776     -10.33712555
C       -0.88159803      -0.88159803      -0.88159803
C       -1.05034734      -2.22625974      -0.56425992
C       -1.87152841      -3.03135140      -1.36262261
C       -2.51419345      -2.50653546      -2.49381427
C       -2.33565877      -1.14510825      -2.79000365
C       -1.52348313      -0.33488798      -1.98850094
C       -3.41491563      -3.32810099      -3.31495698
N       -4.46242792      -2.76086715      -3.92617779
N       -5.19423066      -3.78150318      -4.44548973
C       -6.47164282      -3.47161867      -5.00655744
C       -6.70568982      -2.16790871      -5.47705558
C       -7.92908253      -1.83362451      -6.06103133
C       -8.93836611      -2.78801651      -6.15639295
C       -8.72909197      -4.07264218      -5.65844970
C       -7.50244486      -4.41594575      -5.08097123
C       -4.53384449      -5.00397309      -4.32167862
C       -4.95223257      -6.29200731      -4.88656678
C       -5.24763329      -6.43164477      -6.25036285
C       -5.66107527      -7.66507043      -6.76480702
C       -5.75151588      -8.77206400      -5.92381681
C       -5.43505711      -8.65824368      -4.57318397
C       -5.04186343      -7.42093900      -4.05732124
C       -3.37280287      -4.71269212      -3.61958403
Cl      -2.11123378      -5.80103818      -3.24666529
H       -0.56273408      -2.65740732       0.30597190
H       -2.01556346      -4.06508459      -1.06170792
H       -2.84284883      -0.70052358      -3.64449546
H       -1.40977447       0.71723694      -2.23424394
H       -5.93046116      -1.40545294      -5.42031896
H       -8.09178320      -0.82805401      -6.44070638
H       -9.89236269      -2.52704003      -6.60744222
H       -9.52765090      -4.80921626      -5.71028912
H       -7.40397614      -5.41297573      -4.66375675
H       -5.17316135      -5.58068931      -6.92526951
H       -5.90735882      -7.74934077      -7.82018730
H       -5.49065591      -9.52041538      -3.91367575
H       -4.80505001      -7.34863635      -2.99738226
C       -6.17490142     -10.04236411      -6.45361140
C       -6.52948680     -11.10624046      -6.89731436
Br      -7.10282138     -12.82643854      -7.61474453
C       -0.88159803       0.88159803       0.88159803
C       -2.26596352       0.82682219       0.74808129
C       -3.07555303       1.62268121       1.56726819
C       -2.51030452       2.49297430       2.51126436
C       -1.11137529       2.52556932       2.63382607
C       -0.29925702       1.72407900       1.82353602
C       -3.34840781       3.30059189       3.40897390
N       -2.91546880       3.59204839       4.64195567
N       -3.96178225       4.17929185       5.28014947
C       -3.83308497       4.43665243       6.68008152
C       -2.54574412       4.57854434       7.22636566
C       -2.37839334       4.86213188       8.58321316
C       -3.49115138       4.97984306       9.41178113
C       -4.76996093       4.80331264       8.88691029
C       -4.94420944       4.52841516       7.52673725
C       -5.02289643       4.42730948       4.40929029
C       -6.25373827       5.16768043       4.70938798
C       -6.21636833       6.45960099       5.25367159
C       -7.40221952       7.14087868       5.54785452
C       -8.63098650       6.54575684       5.27065335
C       -8.68658765       5.27548563       4.70441149
C       -7.50145529       4.58857119       4.43009720
C       -4.62097084       3.88917720       3.19493098
Cl      -5.47047734       3.97223200       1.71622793
H       -2.72861646       0.16183941       0.02371363
H       -4.15252792       1.52327322       1.46655483
H       -0.64254644       3.16924973       3.37607171
H        0.77968403       1.76134039       1.94512511
H       -1.65990926       4.49791777       6.59840603
H       -1.37887192       4.99077730       8.99089438
H       -3.36110124       5.19674789      10.46899583
H       -5.63656104       4.86984834       9.54074689
H       -5.95528842       4.35085309       7.17456711
H       -5.26591170       6.94530276       5.46790571
H       -7.35406970       8.13266397       5.99015322
H       -9.64128619       4.81017494       4.47328591
H       -7.56388033       3.59326505       3.99392324
C       -9.85179220       7.24778708       5.57129765
C      -10.87421697       7.83573740       5.82308725
Br     -12.52739135       8.78640335       6.23020974
C        0.88159803      -0.88159803       0.88159803
C        0.95382864      -0.63711763       2.24992072
C        1.74903417      -1.45508812       3.06138014
C        2.49301347      -2.50980210       2.51172760
C        2.39837240      -2.74266390       1.12973438
C        1.59667084      -1.93325476       0.31694645
C        3.29621352      -3.40455998       3.35720011
N        3.45387828      -4.68748749       3.00810708
N        4.07574298      -5.28978682       4.05569378
C        4.21216314      -6.71213913       4.02551665
C        4.20265529      -7.36648610       2.78151272
C        4.36522063      -8.75123371       2.70728404
C        4.51146422      -9.49806620       3.87324515
C        4.48418501      -8.86274300       5.11325585
C        4.33108990      -7.47488740       5.19338454
C        4.47874251      -4.36327268       5.01748101
C        5.29442419      -4.62826141       6.20812108
C        6.53258051      -5.28041279       6.11664761
C        7.28623440      -5.53804597       7.26667234
C        6.81971651      -5.11747921       8.51020097
C        5.60630032      -4.44392002       8.61626442
C        4.84556793      -4.20549607       7.46905967
C        4.00443563      -3.14279228       4.55785111
Cl       4.27286020      -1.61494872       5.27112834
H        0.38818234       0.17421048       2.70019764
H        1.74855908      -1.26325776       4.13053912
H        2.94095215      -3.57044159       0.67647413
H        1.53362417      -2.14075525      -0.74759796
H        4.09677831      -6.80448538       1.85496937
H        4.37747024      -9.24447763       1.73859572
H        4.63412774     -10.57665219       3.81606502
H        4.57244296      -9.45075734       6.02395598
H        4.26691505      -7.03178599       6.18200758
H        6.91865446      -5.60767365       5.15279207
H        8.23321593      -6.06450021       7.17917075
H        5.24214872      -4.10126289       9.58133544
H        3.89581349      -3.68372486       7.57153026
C        7.59642314      -5.38056726       9.69388653
C        8.24691493      -5.60090351      10.68522318
Br       9.29870515      -5.95716859      12.28813071
