109
Properties=species:S:1:pos:R:3 pbc="F F F"
C        0.00000000       0.00000000       0.00000000
C        0.88136973       0.88136973      -0.88136973
C        1.90402736       0.30811932      -1.63207047
C        2.71386281       1.11659833      -2.43777830
C        2.50934899       2.50294439      -2.50195081
C        1.47344310       3.05968045      -1.73306229
C        0.66160028       2.25468491      -0.92743848
C        3.35428427       3.35421661      -3.33205787
O        3.55993689       4.61300558      -2.85197078
N        4.37267533       5.32073671      -3.70767477
C        4.67910527       4.48876963      -4.71766421
C        5.54585278       4.94539719      -5.80571384
C        6.52877158       4.11060320      -6.35694218
C        7.35549887       4.56905980      -7.38855011
C        7.21054466       5.86903915      -7.86751613
Br       8.33333694       6.48904351      -9.25574633
C        6.24886935       6.71668947      -7.32441202
C        5.42175116       6.25593906      -6.29581497
C        4.03462525       3.23000189      -4.52401186
Cl       4.05493366       1.89763623      -5.58127526
H        2.08466010      -0.76318597      -1.59542716
H        3.51679876       0.64310297      -2.99775740
H        1.28362216       4.13178982      -1.75641871
H       -0.13348928       2.71061869      -0.34297915
H        6.68160513       3.10099867      -5.98307093
H        8.11160852       3.90727794      -7.80312121
H        6.13604778       7.73509877      -7.68693256
H        4.67812613       6.93157943      -5.87602523
C       -0.88136973      -0.88136973      -0.88136973
C       -2.26609812      -0.83078008      -0.74733896
C       -3.07390099      -1.64098614      -1.55335231
C       -2.50701403      -2.50711826      -2.50011190
C       -1.10714587      -2.54370619      -2.61533377
C       -0.29678403      -1.73480486      -1.81213478
C       -3.34095685      -3.36155248      -3.33804942
O       -2.78801816      -4.56028623      -3.67660886
N       -3.66113386      -5.28237070      -4.45758224
C       -4.76492813      -4.52773164      -4.59287935
C       -5.89961706      -5.02280632      -5.37454044
C       -7.22169076      -4.82345878      -4.95116740
C       -8.29271849      -5.31441109      -5.70597920
C       -8.04679572      -6.01682830      -6.88347592
Br      -9.49454713      -6.68589898      -7.89768067
C       -6.74084703      -6.23562762      -7.31349620
C       -5.67209809      -5.74177799      -6.55962911
C       -4.59346532      -3.28725585      -3.90791783
Cl      -5.68192882      -1.98060999      -3.87130634
H       -2.72840033      -0.17078058      -0.01772038
H       -4.15114575      -1.59389878      -1.41261460
H       -0.62990397      -3.20314728      -3.33877944
H        0.78366550      -1.78186906      -1.92190499
H       -7.44087789      -4.30274199      -4.02205486
H       -9.31049884      -5.14988484      -5.36162400
H       -6.54109647      -6.79052868      -8.22645395
H       -4.65571704      -5.92561826      -6.90439549
C       -0.88136973       0.88136973       0.88136973
C       -0.86917576       0.71195330       2.26308810
C       -1.67942450       1.51802861       3.07078634
C       -2.50728861       2.50011886       2.50683672
C       -2.50557073       2.65075750       1.10985761
C       -1.69649164       1.84759099       0.29964104
C       -3.36161138       3.33857263       3.34037474
O       -4.53723860       3.72091864       2.76675601
N       -5.26169251       4.49812625       3.64126804
C       -4.53212786       4.58698225       4.76642901
C       -5.03631878       5.35267209       5.90797294
C       -4.88101768       4.89187544       7.22342384
C       -5.38014012       5.63220021       8.30076846
C       -6.04682013       6.83281422       8.06746559
Br      -6.72708203       7.82757757       9.52346717
C       -6.22180494       7.30034826       6.76781764
C       -5.71982136       6.56083800       5.69284583
C       -3.30499888       3.87527948       4.60836064
Cl      -2.02762896       3.77873868       5.72747750
H       -0.23930658      -0.04533125       2.72292596
H       -1.66311219       1.34958982       4.14495712
H       -3.13465606       3.40222771       0.63494691
H       -1.71346426       1.98516018      -0.77851590
H       -4.38911503       3.94475016       7.43180954
H       -5.24998428       5.25876645       9.31325693
H       -6.74876138       8.23171435       6.57760338
H       -5.86930440       6.93513707       4.68128933
C        0.88136973      -0.88136973       0.88136973
C        0.56409120      -2.22576756       1.05435840
C        1.37049576      -3.03299555       1.86474814
C        2.50026180      -2.50597714       2.50800524
C        2.79897165      -1.14574890       2.32146528
C        1.99584970      -0.33626106       1.51161291
C        3.34116000      -3.33787296       3.36152579
O        3.92209474      -2.69150638       4.41131214
N        4.68246780      -3.57041235       5.14820666
C        4.56105879      -4.76996809       4.55451224
C        5.25475347      -5.93469373       5.10751662
C        4.63978070      -7.19391368       5.16262257
C        5.31473754      -8.29276786       5.70560338
C        6.60512935      -8.13576272       6.20620787
Br       7.51231511      -9.61952356       6.94628811
C        7.22742726      -6.89083392       6.17170967
C        6.55267359      -5.79472740       5.62610420
C        3.72758477      -4.66005494       3.40099929
Cl       3.35773802      -5.89018776       2.28591937
H       -0.30872697      -2.65588584       0.56974243
H        1.08676502      -4.07445344       1.99644068
H        3.66757862      -0.70013853       2.80411353
H        2.24962549       0.71292810       1.38341116
H        3.62332134      -7.33813114       4.80422225
H        4.82160067      -9.26085341       5.73955360
H        8.23061191      -6.75887594       6.56859126
H        7.04889732      -4.82558716       5.61124631
