186
Properties=species:S:1:pos:R:3 pbc="F F F"
C        1.79155900       1.79155900      -1.79155900
C        2.50870174       2.84111415      -1.22641970
C        3.31065534       3.64613121      -2.04202472
C        3.40566036       3.42061625      -3.42717140
C        2.65686969       2.36970252      -3.97419873
C        1.86251767       1.55161008      -3.16056110
C        4.22428543       4.31946241      -4.25745558
N        4.40502790       5.58511829      -3.86133645
N        4.96378429       6.20976301      -4.91838663
C        4.72155819       7.60622707      -5.02566530
C        4.37886615       8.18690356      -6.24890917
C        4.12509030       9.56008613      -6.32291272
C        4.15703226      10.34746248      -5.16724692
Cl       3.85224122      12.03857956      -5.34039929
C        4.41389162       9.75236036      -3.92765178
Cl       4.41297652      10.65129439      -2.45225344
C        4.68384472       8.38232579      -3.85602213
C        5.60315093       5.29848538      -5.76637401
C        6.78928075       5.54210447      -6.64162716
C        7.04744662       6.72479331      -7.34615619
C        8.15674895       6.86011485      -8.19893279
C        9.04894339       5.81138627      -8.35304344
Br      10.51348359       5.97949484      -9.52962246
C        8.86460444       4.64494592      -7.62774446
C        7.75886628       4.52673799      -6.77107705
C        4.97036145       4.07869719      -5.45878578
C        5.12609416       2.76857344      -6.15578281
H        2.44725730       3.04921020      -0.16281602
H        3.85701503       4.47181497      -1.58593189
H        2.64181929       2.18333588      -5.04201568
H        1.29194494       0.74266372      -3.61005578
H        4.26962501       7.58372233      -7.14833737
H        3.88935821      10.00972403      -7.28469417
H        4.87795100       7.92287046      -2.88762865
H        6.42226316       7.59450427      -7.27789654
H        8.30155565       7.79451398      -8.73679160
H        9.56575598       3.81887889      -7.71421864
H        7.67952550       3.60901426      -6.19166357
H        4.15746238       2.37177702      -6.46719093
H        5.61265019       2.04193974      -5.49822023
H        5.71168144       2.84821663      -7.07341460
C       -1.79155900      -1.79155900      -1.79155900
C       -2.24564327      -3.01667466      -1.31391766
C       -3.04945124      -3.81965969      -2.12970034
C       -3.40713079      -3.41716427      -3.42915294
C       -2.91933178      -2.18800246      -3.89343670
C       -2.12514211      -1.37325992      -3.07628681
C       -4.21621793      -4.31235925      -4.27262623
N       -4.14456829      -5.63390476      -4.07300958
N       -4.77759407      -6.18551159      -5.12882826
C       -4.35924007      -7.49143582      -5.50277468
C       -4.14729125      -7.82490142      -6.84248621
C       -3.71541899      -9.11094725      -7.18172291
C       -3.43958342     -10.04987371      -6.18228452
Cl      -2.92904823     -11.62322611      -6.67894572
C       -3.56713877      -9.69026226      -4.83650273
Cl      -3.18955551     -10.77829413      -3.54867471
C       -4.01473661      -8.40966424      -4.49779180
C       -5.67423415      -5.28261435      -5.71116182
C       -6.94321052      -5.59405198      -6.43574989
C       -7.14386905      -6.68994950      -7.28457757
C       -8.34965877      -6.88607729      -7.98006053
C       -9.39601447      -5.99103726      -7.82632136
Br     -10.99797203      -6.23241698      -8.79221189
C       -9.26154252      -4.92636644      -6.94938587
C       -8.05612276      -4.74808617      -6.25247239
C       -5.18020146      -4.03071125      -5.29693173
C       -5.63693969      -2.67920310      -5.73430763
H       -1.97721050      -3.36173831      -0.32033470
H       -3.38737123      -4.78211157      -1.74527909
H       -3.11075174      -1.85067709      -4.90574202
H       -1.76009965      -0.42401014      -3.46055465
H       -4.27829124      -7.08935900      -7.63403447
H       -3.58264420      -9.37204864      -8.22908356
H       -4.10720927      -8.13294232      -3.44829851
H       -6.39801113      -7.44294466      -7.45370818
H       -8.44733917      -7.74465601      -8.64086604
H      -10.07829851      -4.22608991      -6.79446509
H       -8.01292138      -3.92272458      -5.54455738
H       -4.80140027      -2.08484580      -6.11018425
H       -6.10515145      -2.14648320      -4.90117552
H       -6.35081731      -2.72374978      -6.55874557
C       -1.79155900       1.79155900       1.79155900
C       -2.06161654       1.41218706       3.10243199
C       -2.87342677       2.22369657       3.90168793
C       -3.42901090       3.41746906       3.40696804
C       -3.15811640       3.76592685       2.07672769
C       -2.33485369       2.96430183       1.27553332
C       -4.31596300       4.21936284       4.26587758
N       -5.01765747       3.60678413       5.22704104
N       -5.90073497       4.52907638       5.66212257
C       -7.11534011       4.03103041       6.20708005
C       -8.34483011       4.60102048       5.86882828
C       -9.52690629       4.07841642       6.40276644
C       -9.49028139       2.95124068       7.23021959
Cl     -10.98857030       2.37519939       7.86745037
C       -8.26821363       2.32615119       7.49953894
Cl      -8.15278280       0.89833502       8.46540652
C       -7.08468135       2.85845596       6.97905534
C       -5.45753141       5.82688005       5.38359886
C       -5.74546164       7.07534207       6.15220868
C       -6.96229418       7.38153768       6.77456426
C       -7.17892988       8.60522417       7.43164254
C       -6.16772993       9.55020991       7.49543327
Br      -6.47342819      11.20829671       8.34087600
C       -4.92836170       9.26328374       6.94564937
C       -4.72165880       8.03306024       6.30196229
C       -4.55005975       5.63342439       4.32436029
C       -3.87122667       6.67718995       3.50203379
H       -1.65827900       0.49064260       3.51036191
H       -3.08528510       1.90659164       4.92288515
H       -3.60507729       4.64177453       1.62031902
H       -2.14006185       3.25765665       0.24694594
H       -8.40782385       5.42888376       5.16497709
H      -10.47744206       4.54729441       6.15903994
H       -6.13629014       2.36477901       7.18738096
H       -7.79676405       6.70678080       6.79111912
H       -8.14898387       8.80018635       7.88369100
H       -4.11321210       9.97979277       7.00584864
H       -3.72067421       7.83659689       5.92293224
H       -4.04650623       6.51329406       2.43663003
H       -2.79335367       6.66965973       3.68979676
H       -4.24845940       7.68139467       3.70345860
C        1.79155900      -1.79155900       1.79155900
C        2.17301577      -1.34912842       3.05409140
C        2.98399690      -2.16143346       3.85338091
C        3.42825195      -3.41891312       3.40628293
C        3.04660918      -3.83173096       2.12243080
C        2.22346844      -3.02861693       1.32260348
C        4.31869073      -4.22294608       4.25956660
N        5.12106021      -3.59959358       5.13082884
N        5.97139185      -4.55005955       5.57048252
C        7.24910727      -4.10172943       6.00261387
C        8.41440898      -4.77373196       5.62653794
C        9.66054428      -4.29944874       6.04809613
C        9.75128599      -3.12228892       6.79816675
Cl      11.32263546      -2.60962532       7.29895928
C        8.59220365      -2.40028584       7.10141427
Cl       8.63284819      -0.90969553       7.97398063
C        7.34491373      -2.88327856       6.69400035
C        5.42917031      -5.82997196       5.40886805
C        5.68880637      -7.04390135       6.24030466
C        6.92308879      -7.39161471       6.80369262
C        7.10576909      -8.58311445       7.52691305
C        6.04343537      -9.45169537       7.71824235
Br       6.30003924     -11.06983089       8.65273077
C        4.79039762      -9.11705514       7.22984206
C        4.61892571      -7.91887029       6.51888533
C        4.46627430      -5.64305291       4.39851722
C        3.66876878      -6.68850252       3.69317912
H        1.85726836      -0.37848421       3.42353094
H        3.28399556      -1.79539696       4.83536937
H        3.40540861      -4.76288853       1.69887370
H        1.94146629      -3.37262574       0.33057241
H        8.37720874      -5.64682588       4.97765008
H       10.56087167      -4.84594801       5.77695673
H        6.44589903      -2.31447126       6.92807982
H        7.79778309      -6.77508050       6.72180037
H        8.08986395      -8.81417469       7.92882259
H        3.93748448      -9.77161171       7.38975733
H        3.60906083      -7.67960633       6.19153618
H        3.78168990      -6.60455311       2.61018731
H        2.60868332      -6.59630880       3.94781804
H        3.99445978      -7.70113839       3.93771450
C       -0.00445707       0.01189536      -1.78238275
H       -0.66409135       0.67374010      -2.43557963
H        0.65740317      -0.63156657      -2.45157240
C       -0.90989263      -0.90692880      -0.91072765
C        0.90977584       0.90977584      -0.90977584
C       -0.00465871       1.77757030       0.00794375
H       -0.66225468       2.44313916      -0.64384735
H        0.64322798       2.43503045       0.67728295
C       -1.78241447       0.00034974      -0.00472694
H       -2.45427497      -0.65498947       0.64260836
H       -2.43311707       0.67328779      -0.65473579
C       -0.91132561       0.90220522       0.91563759
C       -0.01476271      -0.02253852       1.78660255
H       -0.67934791      -0.69751639       2.42135241
H        0.63392994       0.61504881       2.47327442
C        0.01484550      -1.77751727      -0.01636693
H        0.67870853      -2.42144646      -0.68295456
H       -0.62264859      -2.45592969       0.64226336
C        1.78714474       0.01002794       0.00389507
H        2.44202412       0.67113390       0.66197326
H        2.45385902      -0.65136977      -0.64189061
C        0.91606151      -0.90478549       0.90901405
