165
Properties=species:S:1:pos:R:3 pbc="F F F"
C        0.00000000       0.00000000       0.00000000
C        0.88165497       0.88165497      -0.88165497
C        1.59879772       1.93121013      -0.31651568
C        2.40075132       2.73622719      -1.13212069
C        2.49575633       2.51071223      -2.51726737
C        1.74696567       1.45979849      -3.06429471
C        0.95261364       0.64170605      -2.25065707
C        3.31438141       3.40955838      -3.34755156
N        3.49512388       4.67521426      -2.95143242
N        4.05388026       5.29985898      -4.00848261
C        3.81165417       6.69632305      -4.11576127
C        3.46896212       7.27699954      -5.33900514
C        3.21518628       8.65018211      -5.41300870
C        3.24712823       9.43755845      -4.25734289
Cl       2.94233719      11.12867553      -4.43049526
C        3.50398760       8.84245634      -3.01774775
Cl       3.50307249       9.74139036      -1.54234941
C        3.77394070       7.47242176      -2.94611811
C        4.69324691       4.38858135      -4.85646998
C        5.87937673       4.63220045      -5.73172314
C        6.13754260       5.81488929      -6.43625216
C        7.24684493       5.95021083      -7.28902877
C        8.13903936       4.90148225      -7.44313942
Br       9.60357957       5.06959082      -8.61971844
C        7.95470041       3.73504190      -6.71784044
C        6.84896226       3.61683397      -5.86117303
C        4.06045743       3.16879317      -4.54888176
C        4.21619014       1.85866942      -5.24587879
H        1.53735327       2.13930617       0.74708801
H        2.94711101       3.56191094      -0.67602787
H        1.73191526       1.27343185      -4.13211165
H        0.38204091      -0.16724031      -2.70015176
H        3.35972099       6.67381830      -6.23843334
H        2.97945418       9.09982000      -6.37479015
H        3.96804697       7.01296644      -1.97772463
H        5.51235913       6.68460025      -6.36799252
H        7.39165163       6.88460995      -7.82688757
H        8.65585196       2.90897487      -6.80431462
H        6.76962148       2.69911024      -5.28175955
H        3.24755835       1.46187299      -5.55728690
H        4.70274616       1.13203572      -4.58831621
H        4.80177741       1.93831261      -6.16351057
C       -0.88165497      -0.88165497      -0.88165497
C       -0.71027103      -2.26216662      -0.87408587
C       -1.51950524      -3.06182894      -1.68776503
C       -2.50388614      -2.49946513      -2.52038466
C       -2.64184798      -1.10472652      -2.52448436
C       -1.84361676      -0.29958337      -1.70177664
C       -3.30311938      -3.37221257      -3.39615940
N       -2.77546295      -4.52730963      -3.81899798
N       -3.61512829      -4.96923956      -4.77785400
C       -3.04440852      -5.79583712      -5.78349286
C       -3.34811487      -5.60363036      -7.13322157
C       -2.75652138      -6.41736996      -8.10448574
C       -1.81784055      -7.38712500      -7.73706403
Cl      -1.14468306      -8.36690764      -8.98991729
C       -1.44693831      -7.52217057      -6.39508281
Cl      -0.25350124      -8.65809671      -5.87521432
C       -2.05062493      -6.71974810      -5.42210755
C       -4.89292589      -4.41922302      -4.62614934
C       -6.20126894      -5.02685980      -5.01517157
C       -6.42544905      -5.80580913      -6.15742587
C       -7.70036140      -6.29594126      -6.48978186
C       -8.78477357      -6.02914321      -5.66974425
Br     -10.50224081      -6.65187536      -6.13877265
C       -8.59596551      -5.31363046      -4.49798678
C       -7.31561798      -4.83931387      -4.17203741
C       -4.65136846      -3.25493457      -3.87182932
C       -5.61959197      -2.17278021      -3.52836616
H        0.04881184      -2.72621638      -0.25216690
H       -1.36481975      -4.14084948      -1.67938059
H       -3.34104185      -0.60852739      -3.18788953
H       -1.97127427       0.77987132      -1.72354941
H       -4.01451910      -4.80458945      -7.45286408
H       -3.02195683      -6.28171998      -9.15038751
H       -1.75433333      -6.82520314      -4.37920156
H       -5.64520678      -6.07708943      -6.84265568
H       -7.82333009      -6.88161984      -7.39819922
H       -9.42776477      -5.11401885      -3.82735781
H       -7.20921441      -4.31916111      -3.22211574
H       -5.23971930      -1.19495330      -3.83204565
H       -5.81159417      -2.16021676      -2.45128716
H       -6.57381935      -2.28318248      -4.04659877
C       -0.88165497       0.88165497       0.88165497
C       -1.81515848       0.29878414       1.73258090
C       -2.62136310       1.11404076       2.53369533
C       -2.51250994       2.51589435       2.49533164
C       -1.57862743       3.07809063       1.61434080
C       -0.75899830       2.26652455       0.81945392
C       -3.41180671       3.33956720       3.32011744
N       -4.61846087       2.85937091       3.64393877
N       -5.28678646       3.90744151       4.16799389
C       -6.70232254       3.87886060       4.04255536
C       -7.41506790       5.01560757       3.65429133
C       -8.80548235       4.95486382       3.51803091
C       -9.48212487       3.74636248       3.71354222
Cl     -11.20110194       3.75365977       3.54674627
C       -8.76059280       2.58695004       4.01664885
Cl      -9.52232088       1.04905035       4.21544104
C       -7.37219769       2.65122800       4.16905488
C       -4.40525911       4.88007162       4.65296751
C       -4.62817323       5.83426376       5.78086331
C       -5.84370467       6.46033324       6.08464614
C       -5.96336644       7.39421445       7.12850363
C       -4.86332457       7.71159603       7.90874043
Br      -5.01532943       8.99574205       9.28181735
C       -3.65607652       7.07012813       7.68137810
C       -3.55276928       6.13130790       6.64289207
C       -3.21855392       4.61787878       3.94169965
C       -1.96704394       5.43020441       3.92348999
H       -1.93248434      -0.77947042       1.77655752
H       -3.35617962       0.64250322       3.18636697
H       -1.48947005       4.15198091       1.49600781
H       -0.04218282       2.72800435       0.14476520
H       -6.90486356       5.94789615       3.41921292
H       -9.35626763       5.85218734       3.24560936
H       -6.81446694       1.74445027       4.39982083
H       -6.75191373       6.26640656       5.54663161
H       -6.92686364       7.86497862       7.31130688
H       -2.78662796       7.28531864       8.29719484
H       -2.59681753       5.62373585       6.52993788
H       -1.67953306       5.68579222       2.90139297
H       -1.14782825       4.87965452       4.39561532
H       -2.07978790       6.38658741       4.43722529
C        0.88165497      -0.88165497       0.88165497
C        0.64833144      -0.94665488       2.25153719
C        1.46326926      -1.75365164       3.05217830
C        2.52061180      -2.50078871       2.50233541
C        2.74698885      -2.40130031       1.12276971
C        1.92586888      -1.60540926       0.31369863
C        3.38400591      -3.30139197       3.38609347
N        3.54310352      -2.91962292       4.65904411
N        4.55586617      -3.67567648       5.13067920
C        5.32320160      -3.11363703       6.18689987
C        6.71813893      -3.18486906       6.18195881
C        7.45028541      -2.60522679       7.22286488
C        6.79617565      -1.90439888       8.24145504
Cl       7.76562819      -1.23275448       9.50312531
C        5.40571443      -1.75694275       8.20153451
Cl       4.53650640      -0.85720441       9.39310146
C        4.67230621      -2.35052062       7.16965375
C        4.70037421      -4.85174473       4.38617930
C        5.21205630      -6.17414259       4.85710143
C        6.25253306      -6.36001589       5.77613509
C        6.72013129      -7.63822886       6.12772437
C        6.13985399      -8.76855739       5.57524964
Br       6.79591176     -10.48114332       6.01583375
C        5.06745488      -8.63202368       4.70810419
C        4.60293658      -7.35024095       4.37379173
C        4.09046859      -4.52898499       3.15867878
C        4.07212963      -5.34138789       1.90722083
H       -0.15171422      -0.37272832       2.70855734
H        1.27502334      -1.78458693       4.12543956
H        3.58207152      -2.90549685       0.64989039
H        2.12271236      -1.54612309      -0.75388309
H        7.25566952      -3.65550117       5.36080194
H        8.53435806      -2.69200537       7.22770090
H        3.59030483      -2.22815975       7.14027346
H        6.75158617      -5.54641098       6.26695475
H        7.54317668      -7.72642964       6.83354283
H        4.58103518      -9.50583268       4.28227357
H        3.73281513      -7.29509847       3.72257766
H        4.44448529      -4.76374944       1.05848351
H        3.05539708      -5.68047410       1.68722691
H        4.72162007      -6.21665321       1.96532732
