194
Properties=species:S:1:pos:R:3 pbc="F F F"
C        1.79155900       1.79155900      -1.79155900
C        2.50870174       2.84111415      -1.22641970
C        3.31065534       3.64613121      -2.04202472
C        3.40566036       3.42061625      -3.42717140
C        2.65686969       2.36970252      -3.97419873
C        1.86251767       1.55161008      -3.16056110
C        4.22428543       4.31946241      -4.25745558
N        4.40502790       5.58511829      -3.86133645
N        4.96378429       6.20976301      -4.91838663
C        4.72155819       7.60622707      -5.02566530
C        4.37886615       8.18690356      -6.24890917
C        4.12509030       9.56008613      -6.32291272
C        4.15703226      10.34746248      -5.16724692
Cl       3.85224122      12.03857956      -5.34039929
C        4.41389162       9.75236036      -3.92765178
Cl       4.41297652      10.65129439      -2.45225344
C        4.68384472       8.38232579      -3.85602213
C        5.60315093       5.29848538      -5.76637401
C        6.78928075       5.54210447      -6.64162716
C        7.04744662       6.72479331      -7.34615619
C        8.15674895       6.86011485      -8.19893279
C        9.04894339       5.81138627      -8.35304344
C        8.86460444       4.64494592      -7.62774446
C        7.75886628       4.52673799      -6.77107705
C        4.97036145       4.07869719      -5.45878578
C        5.12609416       2.76857344      -6.15578281
H        2.44725730       3.04921020      -0.16281602
H        3.85701503       4.47181497      -1.58593189
H        2.64181929       2.18333588      -5.04201568
H        1.29194494       0.74266372      -3.61005578
H        4.26962501       7.58372233      -7.14833737
H        3.88935821      10.00972403      -7.28469417
H        4.87795100       7.92287046      -2.88762865
H        6.42226316       7.59450427      -7.27789654
H        8.30155565       7.79451398      -8.73679160
H        9.56575598       3.81887889      -7.71421864
H        7.67952550       3.60901426      -6.19166357
H        4.15746238       2.37177702      -6.46719093
H        5.61265019       2.04193974      -5.49822023
H        5.71168144       2.84821663      -7.07341460
C       10.16707457       5.93973197      -9.25132516
C       11.10350943       6.04722149     -10.00363610
Br      12.61764541       6.22102296     -11.22005926
C       -1.79155900      -1.79155900      -1.79155900
C       -2.29116443      -2.99084786      -1.29422330
C       -3.09463384      -3.79415830      -2.11001913
C       -3.40682138      -3.41775445      -3.42887217
C       -2.87376837      -2.21495038      -3.91205218
C       -2.07962755      -1.39959976      -3.09546154
C       -4.21733617      -4.31382047      -4.27004678
N       -4.18685795      -5.63089596      -4.03372872
N       -4.80650954      -6.19402987      -5.09139451
C       -4.41400442      -7.52020998      -5.41923616
C       -4.17587247      -7.89537503      -6.74343137
C       -3.77023623      -9.20110646      -7.03674646
C       -3.54646214     -10.11953356      -6.00574595
Cl      -3.06585541     -11.71871332      -6.44665133
C       -3.69971220      -9.72030551      -4.67388606
Cl      -3.38592414     -10.78259532      -3.34800489
C       -4.12119664      -8.41961694      -4.38137906
C       -5.66263581      -5.28389680      -5.72147770
C       -6.92001476      -5.58125377      -6.47174385
C       -7.12783999      -6.69409178      -7.29646434
C       -8.31971834      -6.87710077      -8.01897748
C       -9.34510513      -5.95089865      -7.91736932
C       -9.20500838      -4.86675456      -7.06553188
C       -8.01402165      -4.70153172      -6.34112795
C       -5.14593755      -4.03470174      -5.32720514
C       -5.55413651      -2.68396468      -5.81234923
H       -2.05852404      -3.31580122      -0.28495825
H       -3.46857137      -4.73656818      -1.70962234
H       -3.02916664      -1.90027146      -4.93773274
H       -1.67894917      -0.47109463      -3.49462064
H       -4.26592204      -7.17837190      -7.55739077
H       -3.61697934      -9.49393792      -8.07285914
H       -4.23381289      -8.11218265      -3.34245457
H       -6.39847598      -7.47083247      -7.42535552
H       -8.42316725      -7.75040938      -8.65928459
H      -10.00627443      -4.14120780      -6.95137128
H       -7.96715787      -3.85869978      -5.65434568
H       -4.69314690      -2.12229545      -6.18098797
H       -6.02956434      -2.11666199      -5.00658382
H       -6.24693800      -2.73199027      -6.65438439
C      -10.55279751      -6.12275638      -8.68257780
C      -11.56423989      -6.26668723      -9.32343990
Br     -13.19965667      -6.49941125     -10.35965971
C       -1.79155900       1.79155900       1.79155900
C       -2.07320716       1.40511039       3.09791804
C       -2.88493313       2.21670564       3.89717250
C       -3.42893816       3.41762012       3.40688972
C       -3.14653102       3.77328252       2.08095740
C       -2.32327228       2.97150579       1.27991077
C       -4.31627828       4.21970938       4.26521576
N       -5.02873115       3.60542060       5.21733089
N       -5.90846072       4.53077013       5.65270307
C       -7.13015652       4.03737722       6.18591682
C       -8.35337102       4.61810351       5.84320434
C       -9.54263132       4.10000527       6.36545257
C       -9.51939407       2.96698041       7.18536717
Cl     -11.02592732       2.39691621       7.80837653
C       -8.30350377       2.33167903       7.45872097
Cl      -8.20446885       0.89654088       8.41551461
C       -7.11281370       2.85937564       6.95000330
C       -5.45450101       5.82736755       5.38614175
C       -5.73917716       7.07250218       6.16133304
C       -6.95814068       7.38279990       6.77745554
C       -7.17092800       8.60343157       7.44143702
C       -6.15376132       9.54098494       7.51862684
C       -4.91263057       9.24930527       6.97535899
C       -4.70991228       8.02211374       6.32465530
C       -4.54111028       5.63491470       4.33181945
C       -3.84952794       6.67957923       3.52134324
H       -1.67898596       0.47805056       3.50224699
H       -3.10596798       1.89409902       4.91469488
H       -3.58435224       4.65527868       1.62753992
H       -2.11941448       3.27053122       0.25471873
H       -8.40586953       5.45116724       5.14464794
H      -10.48824504       4.57706082       6.11847055
H       -6.16927039       2.35777876       7.16140096
H       -7.79729274       6.71369897       6.78367227
H       -8.14271317       8.80196732       7.88818074
H       -4.09304048       9.95976511       7.04604792
H       -3.70771024       7.82136563       5.95112746
H       -4.01859334       6.52417121       2.45366577
H       -2.77304791       6.66335641       3.71640583
H       -4.22127067       7.68495500       3.72708700
C       -6.38293528      10.80402064       8.17117578
C       -6.57486846      11.86181303       8.71768552
Br      -6.88520820      13.57217387       9.60134556
C        1.79155900      -1.79155900       1.79155900
C        2.20440034      -1.33334308       3.03849217
C        3.01514021      -2.14586083       3.83781023
C        3.42801423      -3.41931684       3.40611693
C        3.01513093      -3.84831531       2.13732469
C        2.19205801      -3.04476943       1.33786140
C        4.31933840      -4.22405651       4.25780851
N        5.14898212      -3.59993083       5.10256968
N        5.98986116      -4.55785066       5.54422211
C        7.28334337      -4.12552250       5.94458470
C        8.42901365      -4.82579565       5.55986958
C        9.69120328      -4.36712947       5.94975640
C        9.81730700      -3.17837775       6.67605691
Cl      11.40677192      -2.68593923       7.13850891
C        8.67741310      -2.42956435       6.98692631
Cl       8.76142623      -0.92432450       7.83077361
C        7.41417312      -2.89665775       6.61136177
C        5.42148556      -5.83020636       5.41631840
C        5.67434142      -7.03338703       6.26528394
C        6.91232892      -7.39363293       6.81243427
C        7.08665430      -8.57493543       7.55420686
C        6.01239708      -9.42000461       7.78097141
C        4.75681486      -9.07111186       7.30936809
C        4.59404372      -7.88311106       6.57952655
C        4.44356006      -5.64388971       4.42039466
C        3.61416412      -6.68703460       3.74925170
H        1.91331841      -0.35042786       3.39553724
H        3.33994805      -1.76761540       4.80719844
H        3.34896520      -4.79354352       1.72466213
H        1.88545570      -3.40151197       0.35769677
H        8.36385633      -5.70973397       4.92809440
H       10.57622608      -4.93510763       5.67244270
H        6.53018105      -2.30707920       6.85118986
H        7.79644719      -6.79504502       6.70317176
H        8.07366701      -8.81686557       7.94232864
H        3.89522613      -9.70669118       7.49693620
H        3.58280399      -7.63114196       6.26625739
H        3.70846488      -6.62495664       2.66300880
H        2.56084769      -6.57054201       4.02142046
H        3.92582306      -7.70091747       4.00657214
C        6.19896505     -10.64561272       8.51355392
C        6.35521573     -11.67205952       9.12709177
Br       6.60785985     -13.33173718      10.11913059
C       -0.00445707       0.01189536      -1.78238275
H       -0.66409135       0.67374010      -2.43557963
H        0.65740317      -0.63156657      -2.45157240
C       -0.90989263      -0.90692880      -0.91072765
C        0.90977584       0.90977584      -0.90977584
C       -0.00465871       1.77757030       0.00794375
H       -0.66225468       2.44313916      -0.64384735
H        0.64322798       2.43503045       0.67728295
C       -1.78241447       0.00034974      -0.00472694
H       -2.45427497      -0.65498947       0.64260836
H       -2.43311707       0.67328779      -0.65473579
C       -0.91132561       0.90220522       0.91563759
C       -0.01476271      -0.02253852       1.78660255
H       -0.67934791      -0.69751639       2.42135241
H        0.63392994       0.61504881       2.47327442
C        0.01484550      -1.77751727      -0.01636693
H        0.67870853      -2.42144646      -0.68295456
H       -0.62264859      -2.45592969       0.64226336
C        1.78714474       0.01002794       0.00389507
H        2.44202412       0.67113390       0.66197326
H        2.45385902      -0.65136977      -0.64189061
C        0.91606151      -0.90478549       0.90901405
