165
Properties=species:S:1:pos:R:3 pbc="F F F"
C        0.00000000       0.00000000       0.00000000
C        5.16029241      -1.95012755      -7.08934156
C        4.90478601      -0.66356169      -6.36183232
C        5.85306898       0.36302168      -6.40058094
C        5.61987373       1.57051965      -5.73459296
C        4.43660625       1.76852558      -5.00455367
C        3.47456063       0.75228114      -4.99571585
C        3.71114975      -0.45499041      -5.66463389
N        4.23459081       3.01578213      -4.33349099
N        4.99603646       4.08672634      -4.70152571
C        4.43872038       5.15233664      -4.11691896
C        3.41494777       4.74650183      -3.23634823
C        3.32805320       3.36930149      -3.33213263
C        2.49620284       2.49081657      -2.50994072
C        1.12751385       2.76439352      -2.36808159
C        0.32083850       1.96216971      -1.55780677
C        0.88161104       0.88161104      -0.88161104
C        2.24152937       0.60284308      -1.00062209
C        3.04938201       1.41350500      -1.80399668
C        4.90188955       6.51712879      -4.37793553
C        6.20748815       6.75730119      -4.83096770
C        6.65001755       8.06183425      -5.07437239
C        5.78422341       9.13435393      -4.87353608
Br       6.37816477      10.89828705      -5.20201576
C        4.48126104       8.91570665      -4.43355022
C        4.04273117       7.61126612      -4.18663411
H        5.18613060      -1.77333762      -8.16921861
H        4.37844723      -2.68894345      -6.88451772
H        6.11512125      -2.38163205      -6.77183891
H        6.78168604       0.23194083      -6.95218917
H        6.38232430       2.34628002      -5.78500479
H        2.50898389       0.87323275      -4.51693031
H        2.94538902      -1.22789914      -5.64408838
H        2.83891728       5.37149882      -2.56799001
H        0.67660660       3.60590577      -2.89057529
H       -0.73715541       2.19099880      -1.45995417
H        2.68454398      -0.23571136      -0.46949567
H        4.11312639       1.19347582      -1.87283404
H        6.89047650       5.92522526      -4.99325998
H        7.66678337       8.22530372      -5.42101916
H        3.79860659       9.74810547      -4.28375663
H        3.01661393       7.46366944      -3.85936879
C       -2.91765167      -8.43074793       1.04889319
C       -3.10628131      -7.43758450      -0.05919082
C       -3.37981537      -7.87992541      -1.35693082
C       -3.56799843      -6.96189547      -2.39509243
C       -3.47233188      -5.58132183      -2.15603178
C       -3.23217417      -5.14069615      -0.84968729
C       -3.04534411      -6.06287687       0.18742775
N       -3.66768616      -4.67257763      -3.24360014
N       -4.28309035      -5.12796516      -4.37323302
C       -4.56285257      -4.04267090      -5.10245251
C       -3.97874178      -2.89912218      -4.51993387
C       -3.35308671      -3.31715917      -3.35924145
C       -2.50417065      -2.50517488      -2.48761461
C       -2.97029158      -1.26584807      -2.02384931
C       -2.16313696      -0.45585991      -1.22181810
C       -0.88161104      -0.88161104      -0.88161104
C       -0.39752854      -2.10358720      -1.34387881
C       -1.20334132      -2.90818190      -2.15536047
C       -5.34382608      -4.11359695      -6.33953085
C       -5.41447368      -5.30529899      -7.07598437
C       -6.15623201      -5.36972379      -8.26026840
C       -6.83944352      -4.24236991      -8.71030000
Br      -7.84331288      -4.32565649     -10.30949822
C       -6.78962176      -3.05283429      -7.98806185
C       -6.04388191      -2.98967184      -6.80707765
H       -3.85330221      -8.96643256       1.23772320
H       -2.61291938      -7.94054523       1.97944311
H       -2.13723689      -9.15115867       0.78306746
H       -3.45096818      -8.94441472      -1.57043314
H       -3.77682749      -7.34344880      -3.39333281
H       -3.22469880      -4.08883475      -0.58561340
H       -2.86258796      -5.69361476       1.19462445
H       -3.96538444      -1.89420834      -4.91881334
H       -3.96956593      -0.92093452      -2.28258722
H       -2.54192326       0.50138406      -0.87325837
H        0.60448104      -2.43678319      -1.08602614
H       -0.80454403      -3.85181953      -2.52307270
H       -4.88595798      -6.19223665      -6.73076711
H       -6.19392857      -6.30198809      -8.81718959
H       -7.32804415      -2.17266947      -8.32975506
H       -6.03280255      -2.05527482      -6.25157480
C       -4.09543346       7.82816296      -1.62409000
C       -4.02361293       6.97320863      -0.39376492
C       -4.20106579       7.54677530       0.86883051
C       -4.14668653       6.75672105       2.02157876
C       -3.89969071       5.37707690       1.93291789
C       -3.75631998       4.80022532       0.66601231
C       -3.81245311       5.59434750      -0.48600738
N       -3.84788733       4.60179395       3.13418264
N       -4.38307307       5.12681253       4.27440292
C       -4.43265336       4.12112838       5.15419424
C       -3.77527023       2.98634897       4.63617862
C       -3.34768299       3.31851308       3.36329126
C       -2.50621148       2.50299652       2.48775214
C       -2.85677746       1.16828234       2.23492916
C       -2.04866170       0.35900690       1.43314637
C       -0.88161104       0.88161104       0.88161104
C       -0.51126428       2.20111619       1.13261407
C       -1.31626406       3.00647016       1.94414948
C       -5.06825292       4.26250914       6.46619181
C       -5.20856632       5.52404056       7.06315016
C       -5.81079094       5.65664536       8.31878789
C       -6.28435386       4.52653512       8.98122444
Br      -7.09928498       4.70168748      10.67749512
C       -6.16319099       3.26659205       8.40073486
C       -5.55683009       3.13612062       7.14768069
H       -5.10853104       8.22305881      -1.74957826
H       -3.83865392       7.25903760      -2.52367003
H       -3.39041974       8.66229379      -1.54738542
H       -4.38557564       8.61466067       0.96557974
H       -4.28702817       7.23876506       2.98781588
H       -3.64199597       3.73082284       0.52632814
H       -3.70042423       5.12022916      -1.45907513
H       -3.58482061       2.05046668       5.14311882
H       -3.76585403       0.74719083       2.66004281
H       -2.33679457      -0.67281659       1.24981960
H        0.40213863       2.61110061       0.70936631
H       -1.00443970       4.02970587       2.14529069
H       -4.84383263       6.41326428       6.55186482
H       -5.90547072       6.64305470       8.76458082
H       -6.53897109       2.38243444       8.90906316
H       -5.48791794       2.14472640       6.70700783
C        2.54593775       0.82160190       8.57517056
C        2.86973237      -0.20383301       7.52949125
C        4.05070800      -0.94670123       7.61926238
C        4.35685172      -1.91273363       6.65540099
C        3.49139417      -2.14437580       5.57391553
C        2.29399157      -1.42335623       5.50520980
C        1.99038084      -0.45764887       6.47276351
N        3.83965974      -3.13844374       4.60576045
N        4.78593314      -4.06576058       4.93259481
C        4.73052964      -4.99992329       3.97752305
C        3.86260634      -4.59094701       2.94424447
C        3.33971417      -3.36741833       3.32235482
C        2.49140438      -2.49542077       2.51013498
C        1.34265680      -3.01909644       1.89823573
C        0.53816720      -2.21543564       1.08721213
C        0.88161104      -0.88161104       0.88161104
C        2.02591262      -0.34817352       1.47090841
C        2.83565113      -1.15725472       2.27397784
C        5.51546122      -6.23458140       4.04691126
C        6.69137712      -6.29519836       4.80918157
C        7.44287400      -7.47352757       4.86982263
C        7.01641057      -8.60209025       4.17361260
Br       8.02860754     -10.19619640       4.25366364
C        5.84651006      -8.56474479       3.41926305
C        5.09954360      -7.38451062       3.35657717
H        2.37592746       0.33435532       9.54043945
H        1.64478131       1.38745734       8.31669753
H        3.36943270       1.53651618       8.67241158
H        4.74222975      -0.78086759       8.44271871
H        5.28681234      -2.47002490       6.75677187
H        1.54850423      -1.61055329       4.74008942
H        1.05137638       0.08712594       6.39732781
H        3.67456779      -5.09663850       2.00719981
H        1.06301990      -4.05984807       2.05021970
H       -0.34722186      -2.63987911       0.62114031
H        2.30114053       0.69066943       1.30785719
H        3.73570229      -0.73076225       2.71297171
H        7.03118221      -5.41903043       5.35874909
H        8.35286246      -7.49706988       5.46317390
H        5.50424313      -9.44495163       2.88127393
H        4.18131180      -7.38370276       2.77463762
