137
Properties=species:S:1:pos:R:3 pbc="F F F"
C        0.00000000       0.00000000       0.00000000
C        0.88168489       0.88168489      -0.88168489
C        0.50230932       1.14383997      -2.19620051
C        1.31292705       1.94322626      -3.00479463
C        2.50655328       2.48419686      -2.50185873
C        2.87482878       2.20987289      -1.17620078
C        2.06293457       1.41212034      -0.36713761
C        3.41539721       3.30034303      -3.39656095
C        4.39724449       2.48958936      -4.19621396
C        4.56473034       1.15094698      -4.23213311
N        5.55772940       0.77934190      -5.10486075
C        6.11145191      -0.38864510      -5.53115864
C        7.06959641       0.00095929      -6.45946888
N        7.10647841       1.38551988      -6.58692029
C        6.18558198       1.79116005      -5.75868295
S        5.53936720       3.33264145      -5.29438218
C        7.93317148      -0.88651919      -7.22833995
C        7.85261564      -2.28358034      -7.12115705
C        8.68867921      -3.10897328      -7.88128000
C        9.61286482      -2.54187159      -8.75472002
Br      10.73882608      -3.65841360      -9.78339590
C        9.71028562      -1.15863076      -8.87504892
C        8.87270869      -0.33685129      -8.11411342
H       -0.41703436       0.72940298      -2.60108908
H        1.01230797       2.13470082      -4.03345457
H        3.80017238       2.61102317      -0.76724805
H        2.36212841       1.20823056       0.65793569
H        3.95907622       4.02620404      -2.77799469
H        2.79202350       3.89444008      -4.07772107
H        4.01751861       0.40165789      -3.68060758
H        5.78427839      -1.34848924      -5.16162765
H        7.13978197      -2.75568010      -6.45115220
H        8.60739753      -4.18825702      -7.78396730
H       10.42795450      -0.70715758      -9.55461885
H        8.95617738       0.74403655      -8.21849736
C       -0.88168489      -0.88168489      -0.88168489
C       -2.14836466      -0.43850899      -1.25547615
C       -2.95767774      -1.24849624      -2.05477395
C       -2.50329270      -2.50534045      -2.48397572
C       -1.22553837      -2.93734677      -2.09801731
C       -0.41556873      -2.12622851      -1.30039529
C       -3.40391783      -3.40881886      -3.29956449
C       -4.31771733      -4.28113468      -2.48419579
C       -4.44944915      -4.35523273      -1.14312856
N       -5.40899094      -5.26368671      -0.76925440
C       -5.94471720      -5.70920137       0.39995312
C       -6.90911019      -6.63083935       0.00992496
N       -6.95094522      -6.75300181      -1.37497155
C       -6.03841956      -5.91582599      -1.78117943
S       -5.43498747      -5.40584100      -3.32556237
C       -7.78912503      -7.38215570       0.89628848
C       -7.76531284      -7.21438076       2.28950126
C       -8.63083292      -7.94304945       3.11289644
C       -9.52707277      -8.84633053       2.54769005
Br     -10.69798303      -9.82700894       3.66118359
C       -9.56598745      -9.02913344       1.16841713
C       -8.69978464      -8.29876526       0.34857908
H       -2.51564303       0.53048374      -0.92829842
H       -3.94951613      -0.89704369      -2.33390353
H       -0.85545871      -3.91167346      -2.41131142
H        0.57200950      -2.47519672      -1.00923607
H       -2.77881515      -4.03830157      -3.94615823
H       -4.00248929      -2.78516098      -3.97653438
H       -3.91072160      -3.79464762      -0.39441487
H       -5.61537831      -5.34198260       1.35994412
H       -7.07990015      -6.51509523       2.75974131
H       -8.59670317      -7.79538695       4.18898231
H      -10.26255515      -9.73123565       0.71837504
H       -8.74100154      -8.44826652      -0.72944323
C       -0.88168489       0.88168489       0.88168489
C       -2.21841642       0.54361060       1.08032278
C       -3.02658235       1.35456578       1.87979981
C       -2.50100735       2.50719939       2.48440213
C       -1.15309253       2.83421149       2.27359843
C       -0.34456810       2.02190327       1.47572116
C       -3.39217189       3.41892664       3.30120265
C       -4.12328308       4.46003541       2.49972932
C       -4.10158342       4.67813787       1.16808915
N       -4.92210793       5.71695636       0.80286776
C       -5.28250704       6.32942229      -0.35796388
C       -6.18903890       7.30743487       0.03355081
N       -6.36808601       7.29798303       1.41284953
C       -5.59062997       6.33161438       1.81318064
S       -5.21003531       5.61152472       3.34483080
C       -6.89083847       8.23209375      -0.84793997
C       -6.73316547       8.19917372      -2.24214684
C       -7.42962903       9.09372975      -3.06237285
C       -8.28943613      10.02916548      -2.49288836
Br      -9.23218217      11.23427535      -3.60264914
C       -8.45908270      10.07994185      -1.11232078
C       -7.76172499       9.18397698      -0.29573115
H       -2.64080235      -0.34356984       0.61622520
H       -4.07224070       1.08677719       2.02144545
H       -0.72591651       3.72771842       2.72480866
H        0.69793254       2.28886515       1.32149067
H       -2.78224886       3.91126487       4.06976121
H       -4.11820580       2.80062393       3.84535492
H       -3.54230821       4.13822932       0.41924655
H       -4.88875410       6.02400646      -1.31534376
H       -6.07233922       7.47908636      -2.71617151
H       -7.29403544       9.04871874      -4.13964637
H       -9.12849007      10.80598702      -0.65906132
H       -7.90436051       9.23138400       0.78296679
C        0.88168489      -0.88168489       0.88168489
C        0.46906335      -1.19959597       2.17369047
C        1.27937207      -1.99892691       2.98264896
C        2.50595968      -2.48406447       2.50258472
C        2.90744689      -2.15398424       1.19947132
C        2.09593264      -1.35631082       0.38994907
C        3.41217064      -3.29983911       3.40029144
C        4.34015777      -2.48494252       4.25794752
C        4.46169709      -1.14353612       4.34257722
N        5.41310142      -0.76939118       5.25943945
C        5.91355994       0.40098990       5.74139542
C        6.85372086       0.01176809       6.68807180
N        6.93259138      -1.37436081       6.77196638
C        6.05291157      -1.78166167       5.90085174
S        5.47373188      -3.32685162       5.36580733
C        7.66199893       0.90051871       7.51351203
C        7.53843138       2.29705093       7.44881190
C        8.32157855       3.12318714       8.26259453
C        9.23550135       2.55739233       9.14760423
Br      10.28987210       3.67476383      10.24870011
C        9.37503124       1.17477136       9.22644388
C        8.59027814       0.35222300       8.41191568
H       -0.47615846      -0.82874369       2.56087247
H        0.95228514      -2.23416813       3.99401008
H        3.85835047      -2.51123519       0.80885794
H        2.42106648      -1.10883320      -0.61747641
H        3.99940018      -3.98677423       2.77710053
H        2.78729906      -3.93609790       4.04078769
H        3.90789058      -0.39432066       3.79757284
H        5.56666964       1.36156494       5.39231210
H        6.83223864       2.76798246       6.77099788
H        8.20755705       4.20193148       8.19748224
H       10.08505819       0.72428140       9.91463897
H        8.70630972      -0.72828883       8.48411274
