137
Properties=species:S:1:pos:R:3 pbc="F F F"
C        0.00000000       0.00000000       0.00000000
O       -0.74367907       7.49177573      -0.62550623
C       -0.01050915       7.58274333      -1.61002558
N        0.69303471       6.53831996      -2.18394073
N        0.55267563       5.26307950      -1.72525590
C        1.38155005       4.38631996      -2.19451269
C        2.55489910       4.59856547      -3.15712184
O        2.84933880       5.65146819      -3.67970411
N        3.16930860       3.36987036      -3.26455652
C        2.50420211       2.41929597      -2.49968269
C        2.82767678       1.08623497      -2.35205220
C        2.00045260       0.31282125      -1.52816988
C        0.88272838       0.88272838      -0.88272838
C        0.56885971       2.23382002      -1.03234017
C        1.40328011       2.97200699      -1.84445175
C        0.22246035       8.92274296      -2.30439465
O        0.94585943       8.74947755      -3.52092829
C        0.73657530       9.70431208      -4.47926467
C        0.54208370      11.05587858      -4.17832030
C        0.35170260      11.98459450      -5.20460627
C        0.36886569      11.57281364      -6.53666109
C        0.58403814      10.23106140      -6.84680271
C        0.77307360       9.30124382      -5.82166666
Br       1.04547103       7.48402682      -6.30452811
H        1.32906470       6.73950211      -2.96330748
H        3.99084201       3.21254688      -3.83066576
H        3.68667749       0.64629225      -2.84681999
H        2.22874375      -0.74263845      -1.38812588
H       -0.28300898       2.69323131      -0.54036481
H        0.80355530       9.55525191      -1.62388659
H       -0.76828296       9.35839586      -2.48591489
H        0.54983038      11.41275165      -3.15261820
H        0.19578031      13.03406484      -4.96458870
H        0.22097238      12.29793512      -7.33345987
H        0.60220472       9.91841125      -7.88748166
O       -5.95604096      -3.91750776       2.49994584
C       -6.06521512      -4.59541804       1.47837339
N       -5.30110162      -4.44817912       0.33398534
N       -4.27425530      -3.55390634       0.28715061
C       -3.73712421      -3.35195714      -0.87330135
C       -4.14304297      -3.93747864      -2.23006480
O       -5.02557238      -4.74902705      -2.40591167
N       -3.31491618      -3.33610285      -3.15271646
C       -2.43240785      -2.46440557      -2.52636734
C       -1.46374832      -1.68186679      -3.12034884
C       -0.68188932      -0.88027530      -2.27927912
C       -0.88272838      -0.88272838      -0.88272838
C       -1.87040682      -1.67187363      -0.29273945
C       -2.62832842      -2.44639644      -1.14501399
C       -7.12013036      -5.69366168       1.36419409
O       -6.93196472      -6.46228520       0.17798466
C       -7.39350018      -7.75023821       0.22358634
C       -8.55983435      -8.11795469       0.90150646
C       -8.98761632      -9.44798376       0.89469671
C       -8.26274333     -10.41542874       0.19983164
C       -7.11099386     -10.05391407      -0.49699431
C       -6.68136859      -8.72479038      -0.48982511
Br      -5.09562583      -8.29462856      -1.44377158
H       -5.52222749      -5.02367690      -0.48596989
H       -3.36641054      -3.52384259      -4.14380152
H       -1.30807690      -1.67806118      -4.19365165
H        0.09025267      -0.24865442      -2.71582942
H       -2.04505846      -1.68429344       0.77876477
H       -8.10322339      -5.21068102       1.33121062
H       -7.02462336      -6.31506886       2.26366443
H       -9.16111320      -7.38389296       1.42980592
H       -9.89298084      -9.72944438       1.42799137
H       -8.59834138     -11.44979779       0.19577181
H       -6.55448798     -10.81221963      -1.04139002
O        2.42462944       3.63627930       6.16195303
C        1.29499259       3.91068136       6.56657100
N        0.11537380       3.63189221       5.89877699
N        0.12016565       2.93039107       4.73078561
C       -1.00049267       2.87702975       4.08486028
C       -2.33225589       3.55590112       4.42242940
O       -2.54750519       4.22032238       5.41268353
N       -3.17424564       3.25571371       3.37377613
C       -2.52864407       2.45590435       2.43863234
C       -3.04521349       1.96241924       1.25833122
C       -2.20285281       1.16564811       0.47294281
C       -0.88272838       0.88272838       0.88272838
C       -0.36735712       1.39325420       2.07440858
C       -1.21674414       2.17855886       2.82443584
C        1.08244845       4.64163455       7.89041186
O       -0.29988336       4.67794481       8.23843710
C       -0.57483725       4.76895589       9.57635891
C        0.20459088       5.51569931      10.46517416
C       -0.14034858       5.58316534      11.81738945
C       -1.27232030       4.91847125      12.28754888
C       -2.06747610       4.18979680      11.40462935
C       -1.72296049       4.12031133      10.05271226
Br      -2.83528714       3.09876412       8.89997470
H       -0.76920929       3.96607212       6.29659287
H       -4.12689062       3.58698724       3.32017679
H       -4.05946173       2.17912108       0.94120693
H       -2.57837873       0.76188991      -0.46603746
H        0.64701293       1.19233722       2.40526284
H        1.45310073       5.66581390       7.76998062
H        1.67136054       4.10342943       8.64395890
H        1.07696228       6.06638867      10.12577385
H        0.47243695       6.16144171      12.50542909
H       -1.53874541       4.97317867      13.34044329
H       -2.95166323       3.67933457      11.77709984
O        6.93597247       1.88683741       2.32446782
C        7.22050493       0.75554948       2.71730432
N        6.36157775      -0.32951700       2.72420065
N        5.10854562      -0.23483528       2.19763013
C        4.31499743      -1.23485615       2.41252913
C        4.57073379      -2.49765580       3.24219683
O        5.61525397      -2.77485454       3.79040259
N        3.38230185      -3.19487729       3.22655634
C        2.42905180      -2.52426758       2.46986139
C        1.12569776      -2.90884258       2.23142360
C        0.34630150      -2.06931370       1.42582853
C        0.88272838      -0.88272838       0.88272838
C        2.19975855      -0.49880316       1.13645819
C        2.94179350      -1.34113798       1.93680736
C        8.60213468       0.43695649       3.28441976
O        8.75877758      -0.96498743       3.49250026
C       10.04365269      -1.43452019       3.44197917
C       11.13839971      -0.71181053       3.92607234
C       12.42390850      -1.25526957       3.86172530
C       12.62256058      -2.52795155       3.32782829
C       11.53430190      -3.26450144       2.86309891
C       10.24870480      -2.72178099       2.92549829
Br       8.80652975      -3.76555269       2.26194351
H        6.68256058      -1.21194920       3.13736451
H        3.25216141      -4.07231989       3.70957336
H        0.71122043      -3.82021970       2.64834960
H       -0.68749847      -2.34215388       1.21957577
H        2.63019114       0.41266799       0.73306398
H        8.69837243       0.95884695       4.24316831
H        9.33378360       0.81890468       2.56114886
H       11.01385252       0.27061257       4.37196027
H       13.27268723      -0.68657117       4.23517545
H       13.62415694      -2.94870293       3.27950750
H       11.69597179      -4.25823430       2.45389154
