166
Properties=species:S:1:pos:R:3 pbc="F F F"
O        0.16622495       8.40167975      -1.53541025
C        0.89939488       8.49264736      -2.51992961
N        1.60293874       7.44822398      -3.09384475
N        1.46257965       6.17298353      -2.63515992
C        2.29145408       5.29622399      -3.10441671
C        3.46480312       5.50846949      -4.06702587
O        3.75924282       6.56137222      -4.58960814
N        4.07921262       4.27977439      -4.17446055
C        3.41410613       3.32920000      -3.40958671
C        3.73758080       1.99613900      -3.26195622
C        2.91035663       1.22272528      -2.43807391
C        1.79263240       1.79263240      -1.79263240
C        1.47876373       3.14372404      -1.94224420
C        2.31318413       3.88191101      -2.75435577
C        1.13236437       9.83264698      -3.21429867
O        1.85576345       9.65938157      -4.43083232
C        1.64647932      10.61421611      -5.38916870
C        1.45198773      11.96578260      -5.08822432
C        1.26160663      12.89449852      -6.11451029
C        1.27876971      12.48271767      -7.44656511
C        1.49394217      11.14096542      -7.75670673
C        1.68297763      10.21114784      -6.73157068
H        2.23896873       7.64940613      -3.87321150
H        4.90074603       4.12245091      -4.74056978
H        4.59658152       1.55619627      -3.75672401
H        3.13864777       0.16726558      -2.29802990
H        0.62689504       3.60313533      -1.45026883
H        1.71345933      10.46515593      -2.53379061
H        0.14162106      10.26829989      -3.39581891
H        1.45973440      12.32265568      -4.06252223
H        1.10568433      13.94396887      -5.87449272
H        1.13087640      13.20783914      -8.24336390
H        1.51210875      10.82831528      -8.79738568
C        1.88943669       8.83381866      -7.09754743
C        2.06234616       7.68030547      -7.40405296
Br       2.34192614       5.81517221      -7.89964648
O       -7.34065546       1.38199902      -4.14465851
C       -7.70629849       0.24802858      -4.45370194
N       -6.97335472      -0.91001966      -4.26163309
N       -5.77484319      -0.88162177      -3.61425815
C       -5.07707270      -1.97167320      -3.64334887
C       -5.38583515      -3.28585771      -4.36860562
O       -6.39571187      -3.51751479      -4.99699652
N       -4.28711247      -4.08992019      -4.15641490
C       -3.34528237      -3.43757319      -3.37003727
C       -2.12075725      -3.91942109      -2.95549768
C       -1.33740708      -3.07769786      -2.15605087
C       -1.79263240      -1.79263240      -1.79263240
C       -3.02926557      -1.31174838      -2.22371802
C       -3.77646924      -2.15932575      -3.01365593
C       -9.05232068       0.00627108      -5.13326043
O       -9.33877528      -1.38794159      -5.21926047
C      -10.66569503      -1.72159627      -5.26257282
C      -11.62325664      -0.95218117      -5.93055684
C      -12.96015677      -1.35741374      -5.95304493
C      -13.34658725      -2.53930973      -5.32215552
C      -12.39505344      -3.32388060      -4.67268028
C      -11.05833599      -2.91917646      -4.64818370
H       -7.34613085      -1.79643592      -4.61901960
H       -4.20622624      -5.02298920      -4.53455129
H       -1.76869511      -4.90665529      -3.23415140
H       -0.36431825      -3.42618282      -1.81344219
H       -3.39578178      -0.32432917      -1.96018825
H       -8.99745837       0.42817359      -6.14312109
H       -9.80538604       0.53385293      -4.53420675
H      -11.35015552      -0.04068297      -6.45407381
H      -13.70185015      -0.75238988      -6.46990589
H      -14.38775742      -2.85258793      -5.34173409
H      -12.70252559      -4.24691637      -4.18836774
C      -10.11167523      -3.75405768      -3.95506988
C       -9.31884684      -4.45327069      -3.37458706
Br      -8.03691039      -5.58383900      -2.43599544
O       -0.56432430       8.45451261       1.08447805
C       -1.24702737       8.56190082       2.10304366
N       -1.85734412       7.51549698       2.77216638
N       -1.66915672       6.22553986       2.37602653
C       -2.41970585       5.33347633       2.93891259
C       -3.54935887       5.53663366       3.95430595
O       -3.87492795       6.60025508       4.43504015
N       -4.08555030       4.28461164       4.16328562
C       -3.40948131       3.32920573       3.41420580
C       -3.66349346       1.97429298       3.35788958
C       -2.83917443       1.20090302       2.53107836
C       -1.79263240       1.79263240       1.79263240
C       -1.54912299       3.16511218       1.85049680
C       -2.37923371       3.90231988       2.66789732
C       -1.51846794       9.92491027       2.73593182
O       -2.16369154       9.78272753       3.99955827
C       -1.95785017      10.80090027       4.89111369
C       -1.85780900      12.14153643       4.50664922
C       -1.66562827      13.13654420       5.46844298
C       -1.58687383      12.80151977       6.81965890
C       -1.70759542      11.47007310       7.21394581
C       -1.89830915      10.47410605       6.25328095
H       -2.46065862       7.72625742       3.57467032
H       -4.86479292       4.11569243       4.78328137
H       -4.46774564       1.51751246       3.92424371
H       -3.01381092       0.12832283       2.46180951
H       -0.75294579       3.64107386       1.28627955
H       -2.17093635      10.48489737       2.05657215
H       -0.54595895      10.42334924       2.83643167
H       -1.94163073      12.43804480       3.46523677
H       -1.58340435      14.17742963       5.16331194
H       -1.43781730      13.57810140       7.56616074
H       -1.65133027      11.21710324       8.26937619
C       -2.00527568       9.11086857       6.70465854
C       -2.09486014       7.96915718       7.08268727
Br      -2.23971065       6.12310642       7.69392776
O        7.16855970       1.47189912       4.40665438
C        7.55940463       0.34036063       4.69292785
N        6.86828412      -0.83252434       4.44419901
N        5.68922287      -0.81993340       3.76156683
C        5.02459300      -1.93060903       3.73689274
C        5.35176330      -3.25662859       4.43190660
O        6.34914765      -3.47731554       5.08375998
N        4.28495792      -4.08609862       4.16239101
C        3.34737237      -3.43824702       3.36727345
C        2.15102545      -3.94333792       2.90131265
C        1.36636643      -3.10117505       2.10361433
C        1.79263240      -1.79263240       1.79263240
C        3.00061439      -1.28865137       2.27546621
C        3.74962146      -2.13744561       3.06238384
C        8.89141790       0.11800052       5.40589264
O        9.21773825      -1.26906748       5.45917162
C       10.55237799      -1.56433119       5.53315494
C       11.46567309      -0.78762303       6.25269853
C       12.81309388      -1.15346556       6.30405600
C       13.25409309      -2.30349447       5.65046493
C       12.34673451      -3.09573217       4.94914764
C       10.99957208      -2.73035069       4.89577339
H        7.25724138      -1.71800200       4.78634298
H        4.22147755      -5.03229683       4.50999234
H        1.82122905      -4.94866125       3.13961151
H        0.41500779      -3.46775805       1.72117741
H        3.34439683      -0.28317687       2.05272550
H        8.79369419       0.50697471       6.42568639
H        9.64544064       0.68580911       4.84610833
H       11.14936701       0.09890736       6.79445265
H       13.52023848      -0.54278460       6.86112284
H       14.30332450      -2.58616126       5.69259369
H       12.69656906      -3.99396889       4.44727176
C       10.09991843      -3.57137229       4.14951206
C        9.34645851      -4.27572789       3.52451819
Br       8.12817753      -5.41461132       2.51395597
C       -0.00445707       0.01189536      -1.78238275
H       -0.66409135       0.67374010      -2.43557963
H        0.65740317      -0.63156657      -2.45157240
C       -0.90989263      -0.90692880      -0.91072765
C        0.90977584       0.90977584      -0.90977584
C       -0.00465871       1.77757030       0.00794375
H       -0.66225468       2.44313916      -0.64384735
H        0.64322798       2.43503045       0.67728295
C       -1.78241447       0.00034974      -0.00472694
H       -2.45427497      -0.65498947       0.64260836
H       -2.43311707       0.67328779      -0.65473579
C       -0.91132561       0.90220522       0.91563759
C       -0.01476271      -0.02253852       1.78660255
H       -0.67934791      -0.69751639       2.42135241
H        0.63392994       0.61504881       2.47327442
C        0.01484550      -1.77751727      -0.01636693
H        0.67870853      -2.42144646      -0.68295456
H       -0.62264859      -2.45592969       0.64226336
C        1.78714474       0.01002794       0.00389507
H        2.44202412       0.67113390       0.66197326
H        2.45385902      -0.65136977      -0.64189061
C        0.91606151      -0.90478549       0.90901405
