113
Properties=species:S:1:pos:R:3 pbc="F F F"
C        0.00000000       0.00000000       0.00000000
O        4.53115350       5.21100575      -4.86701573
C        5.01029879       4.83956025      -3.80433584
C        4.49138906       3.70811314      -2.92855397
O        3.17967670       3.33073305      -3.33000687
C        2.49926122       2.50166688      -2.48297919
C        3.07531377       1.68117653      -1.51145057
C        2.26464930       0.87165928      -0.70794222
C        0.88150239       0.88150239      -0.88150239
C        0.30028041       1.68704736      -1.85664039
C        1.11285382       2.49052512      -2.65941619
O        6.15572122       5.36203455      -3.18484153
C        6.87045766       6.48531267      -3.65815384
C        6.31183105       7.48567987      -4.45128214
C        7.09139617       8.58470430      -4.82181289
C        8.41197469       8.68120600      -4.38298167
Br       9.45621092      10.17849494      -4.87418891
C        8.96519540       7.68715421      -3.57650742
C        8.19019921       6.58557167      -3.21033156
H        4.47824605       4.06766348      -1.89246202
H        5.17711083       2.86189691      -3.04708821
H        4.14895138       1.63600504      -1.36236204
H        2.72177565       0.23491089       0.04538554
H       -0.77649737       1.69853977      -2.00234361
H        0.66157918       3.11975586      -3.42357400
H        5.28049046       7.44188340      -4.78691947
H        6.65601155       9.36060922      -5.44612324
H        9.99098134       7.76389900      -3.22598329
H        8.61473896       5.81362159      -2.57431279
O       -5.22596000      -4.83435810      -4.54885688
C       -4.78061380      -3.81513160      -5.05844948
C       -3.63302292      -2.96889931      -4.52613395
O       -3.33778092      -3.32257557      -3.18006012
C       -2.50086013      -2.48290403      -2.50014312
C       -1.60744854      -1.58044387      -3.08004845
C       -0.79828076      -0.77686518      -2.26910485
C       -0.88150239      -0.88150239      -0.88150239
C       -1.76042319      -1.78801006      -0.29553492
C       -2.56343988      -2.59123505      -1.10812021
O       -5.21768331      -3.22893163      -6.25598234
C       -6.32813689      -3.68364427      -7.00214302
C       -7.39141366      -4.40053908      -6.45684032
C       -8.46957204      -4.75703521      -7.27130611
C       -8.48233025      -4.37967478      -8.61415733
Br      -9.95135867      -4.85091574      -9.70662036
C       -7.42495106      -3.64890272      -9.15500324
C       -6.34424053      -3.29709620      -8.34476572
H       -3.94137544      -1.91769627      -4.57929984
H       -2.76244043      -3.16058371      -5.16307181
H       -1.50469846      -1.48664849      -4.15597151
H       -0.10449999      -0.07763291      -2.72916811
H       -1.82955276      -1.87985279       0.78501953
H       -3.24997890      -3.30191279      -0.65301735
H       -7.41259751      -4.68670515      -5.40999067
H       -9.29481945      -5.32209272      -6.84583184
H       -7.43616729      -3.34606589     -10.19863045
H       -5.52287125      -2.71963824      -8.76016385
O       -5.14863185       4.49107814       4.96946499
C       -3.95888673       4.44446406       5.25084408
C       -2.84027178       3.93379903       4.35398536
O       -3.37737381       3.20964349       3.25339931
C       -2.48748463       2.49014909       2.50627356
C       -1.10972464       2.70815463       2.45006160
C       -0.30536803       1.90080589       1.63807688
C       -0.88150239       0.88150239       0.88150239
C       -2.25608903       0.66589097       0.92198817
C       -3.05616246       1.47627710       1.73035558
O       -3.37401954       4.87841708       6.45016067
C       -4.10558994       5.34148042       7.56685381
C       -5.42769266       4.98956962       7.83153079
C       -6.04440614       5.45924886       8.99425835
C       -5.33044299       6.25910189       9.88661748
Br      -6.16534857       6.87775531      11.46579088
C       -4.00260745       6.59786579       9.62838379
C       -3.38663243       6.13487352       8.46459649
H       -2.20100059       3.27891092       4.95846003
H       -2.28614326       4.80718781       3.99276487
H       -0.63176163       3.50372272       3.01183411
H        0.76649635       2.07836923       1.59942813
H       -2.71503559      -0.12339651       0.33274694
H       -4.13099242       1.31130095       1.76261566
H       -5.99583275       4.35139965       7.16206093
H       -7.07782038       5.18931456       9.19560907
H       -3.44122450       7.21365321      10.32598593
H       -2.34928221       6.38889308       8.26449805
O        4.52078687      -4.88851196       5.19987615
C        4.29200188      -5.29379526       4.06839774
C        3.74755437      -4.47096850       2.90953330
O        3.22603153      -3.23388555       3.38049953
C        2.48799565      -2.50633945       2.48957218
C        2.53409683      -2.63371721       1.10012683
C        1.72765009      -1.82146299       0.29513772
C        0.88150239      -0.88150239       0.88150239
C        0.83912740      -0.73928807       2.26555270
C        1.64843034      -1.54884551       3.06551928
O        4.51035186      -6.59667701       3.59556842
C        4.93396473      -7.67366274       4.40629671
C        4.72536577      -7.74097421       5.78245308
C        5.13572267      -8.87709458       6.48509611
C        5.73280809      -9.93849761       5.80485667
Br       6.27082940     -11.47939136       6.75867401
C        5.92699726      -9.87651063       4.42534914
C        5.52344341      -8.74011248       3.72254656
H        2.95290407      -5.05540891       2.43005857
H        4.57851368      -4.28833838       2.21924389
H        3.19415618      -3.34222397       0.61093831
H        1.77078833      -1.92658038      -0.78606770
H        0.18593288      -0.00664967       2.73180347
H        1.61879253      -1.43869780       4.14741871
H        4.24400060      -6.93618331       6.32910942
H        4.97835548      -8.92490840       7.55948013
H        6.38399691     -10.70542092       3.89144581
H        5.66448574      -8.69195354       2.64623407
