121
Properties=species:S:1:pos:R:3 pbc="F F F"
C        0.00000000       0.00000000       0.00000000
O        4.53115350       5.21100575      -4.86701573
C        5.01029879       4.83956025      -3.80433584
C        4.49138906       3.70811314      -2.92855397
O        3.17967670       3.33073305      -3.33000687
C        2.49926122       2.50166688      -2.48297919
C        3.07531377       1.68117653      -1.51145057
C        2.26464930       0.87165928      -0.70794222
C        0.88150239       0.88150239      -0.88150239
C        0.30028041       1.68704736      -1.85664039
C        1.11285382       2.49052512      -2.65941619
O        6.15572122       5.36203455      -3.18484153
C        6.87045766       6.48531267      -3.65815384
C        6.31183105       7.48567987      -4.45128214
C        7.09139617       8.58470430      -4.82181289
C        8.41197469       8.68120600      -4.38298167
C        8.96519540       7.68715421      -3.57650742
C        8.19019921       6.58557167      -3.21033156
H        4.47824605       4.06766348      -1.89246202
H        5.17711083       2.86189691      -3.04708821
H        4.14895138       1.63600504      -1.36236204
H        2.72177565       0.23491089       0.04538554
H       -0.77649737       1.69853977      -2.00234361
H        0.66157918       3.11975586      -3.42357400
H        5.28049046       7.44188340      -4.78691947
H        6.65601155       9.36060922      -5.44612324
H        9.99098134       7.76389900      -3.22598329
H        8.61473896       5.81362159      -2.57431279
C        9.20741759       9.82176004      -4.75715688
C        9.87360102      10.77697405      -5.07052862
Br      10.95076327      12.32147430      -5.57722421
O       -5.23246140      -4.81824904      -4.55846454
C       -4.75078304      -3.82238173      -5.08103011
C       -3.59597023      -2.99081851      -4.54126742
O       -3.34112873      -3.31878001      -3.18050787
C       -2.50044392      -2.48289694      -2.50056642
C       -1.57211526      -1.61597815      -3.07984746
C       -0.76312411      -0.81235345      -2.26877323
C       -0.88150239      -0.88150239      -0.88150239
C       -1.79558889      -1.75266145      -0.29571782
C       -2.59838525      -2.55611712      -1.10829277
O       -5.14526137      -3.25510565      -6.30223027
C       -6.24847820      -3.70140429      -7.06404168
C       -7.34128473      -4.37969725      -6.52781108
C       -8.40824706      -4.73024332      -7.35942298
C       -8.38026998      -4.38518631      -8.71070607
C       -7.29312792      -3.69277761      -9.24295150
C       -6.22362842      -3.34708056      -8.41539346
H       -3.87754047      -1.93423316      -4.62659793
H       -2.71550514      -3.21826035      -5.15233046
H       -1.44182165      -1.55060713      -4.15488968
H       -0.04203710      -0.14095486      -2.72830905
H       -1.89234307      -1.81676104       0.78471810
H       -3.31239387      -3.23924488      -0.65327030
H       -7.39401371      -4.63995187      -5.47532776
H       -9.25667509      -5.26528146      -6.94078746
H       -7.27245440      -3.41502091     -10.29338832
H       -5.37901453      -2.79931465      -8.82434416
C       -9.48771979      -4.73766557      -9.56094916
C      -10.41520900      -5.03286694     -10.27302774
Br     -11.91488062      -5.51018260     -11.42439858
O       -5.12857307       4.48475541       4.99584650
C       -3.92769217       4.49704424       5.22945847
C       -2.82539694       3.99454296       4.30811626
O       -3.37536249       3.20479685       3.26025727
C       -2.48684929       2.49092098       2.50613700
C       -1.12258836       2.76090653       2.38444598
C       -0.31841076       1.95324754       1.57259249
C       -0.88150239       0.88150239       0.88150239
C       -2.24331800       0.61338320       0.98726696
C       -3.04348846       1.42409506       1.79521162
O       -3.31413316       5.00303836       6.38542577
C       -4.01933105       5.48245394       7.51213919
C       -5.31422326       5.08960384       7.84496596
C       -5.90319981       5.58208314       9.01263041
C       -5.18805203       6.44581620       9.84229414
C       -3.88663760       6.82603462       9.51618480
C       -3.29871662       6.34015825       8.34722757
H       -2.13613700       3.39106603       4.91116852
H       -2.32259320       4.87355806       3.88994469
H       -0.65599169       3.59734055       2.89398622
H        0.74282445       2.17144702       1.48267844
H       -2.69227870      -0.21716095       0.44926826
H       -4.10845788       1.21808052       1.87837064
H       -5.88162461       4.40228237       7.22538636
H       -6.91577675       5.27991186       9.26705540
H       -3.32394147       7.49190450      10.16501766
H       -2.28150296       6.62664880       8.09452158
C       -5.79473977       6.94076684      11.05082790
C       -6.30284076       7.35528800      12.06297492
Br      -7.12439709       8.02553365      13.69953105
O        4.50620310      -4.92325121       5.17972067
C        4.35584638      -5.27939979       4.01894870
C        3.82745032      -4.42499908       2.87560677
O        3.21872910      -3.24198703       3.37970048
C        2.48888145      -2.50637404       2.48865179
C        2.61095936      -2.55805449       1.09892703
C        1.80413444      -1.74589221       0.29422415
C        0.88150239      -0.88150239       0.88150239
C        0.76263021      -0.81455465       2.26678330
C        1.57241287      -1.62362050       3.06676176
O        4.66574596      -6.54308236       3.49376898
C        5.10437845      -7.63870270       4.27084303
C        4.83113150      -7.78861654       5.62904502
C        5.26505099      -8.93819463       6.29466774
C        5.95035113      -9.93121122       5.59460002
C        6.20967359      -9.78715139       4.23203204
C        5.78253259      -8.63694807       3.56662178
H        3.08957229      -5.02238037       2.32641889
H        4.68109726      -4.16504839       2.23995029
H        3.33096909      -3.20600442       0.61034495
H        1.90669067      -1.79172663      -0.78711629
H        0.04934404      -0.14098763       2.73405434
H        1.48302235      -1.57213117       4.14975552
H        4.28141220      -7.03873230       6.18914884
H        5.05694869      -9.05023555       7.35555977
H        6.73572277     -10.56297910       3.68216176
H        5.97443120      -8.52527693       2.50296522
C        6.38453546     -11.11962361       6.28217543
C        6.74816484     -12.11491899       6.85801985
Br       7.33612280     -13.72422743       7.78911156
