122
Properties=species:S:1:pos:R:3 pbc="F F F"
C        1.79142315       1.79142315      -1.79142315
C        1.33386121       3.03572447      -2.20307964
C        2.14367395       3.84220610      -3.00895988
C        3.41548137       3.41547384      -3.41177888
N        4.25653546       4.20566204      -4.22495045
C        4.03297680       5.47193834      -4.73712115
O        3.02985058       6.15323680      -4.55682307
C        5.14453465       5.94756117      -5.54301948
C        5.33642470       7.13884466      -6.21717039
C        6.60585967       7.05665886      -6.83940993
C        7.11442821       5.82169940      -6.50975520
Br       8.77008677       5.15979806      -7.05725903
O        6.23938238       5.14005295      -5.72320995
C        3.87542864       2.14658577      -2.99220347
C        5.23082943       1.61298380      -3.37560296
C        3.05175858       1.34505407      -2.17951331
H        0.35160838       3.39469076      -1.90716066
H        1.74180655       4.80587433      -3.30617765
H        5.15557256       3.81420500      -4.48017524
H        4.63355180       7.96153838      -6.24756608
H        7.08634915       7.80703138      -7.45211951
H        5.39691454       0.60584378      -2.97803205
H        6.01917668       2.25858492      -2.97481724
H        5.32254923       1.55146915      -4.46487597
H        3.39860369       0.36831141      -1.84898573
C       -1.79142315      -1.79142315      -1.79142315
C       -1.34133402      -3.04332097      -2.18801034
C       -2.15115179      -3.84976789      -2.99392025
C       -3.41551394      -3.41544091      -3.41177924
N       -4.25636145      -4.20538515      -4.22540135
C       -4.03956669      -5.47808746      -4.72438215
O       -3.04416711      -6.16657124      -4.52917211
C       -5.14816346      -5.95104193      -5.53590992
C       -5.34469014      -7.14653579      -6.20121382
C       -6.60780996      -7.05870047      -6.83541803
C       -7.10826196      -5.81642342      -6.52119742
Br      -8.75307848      -5.14484900      -7.08921639
O       -6.23415593      -5.13554883      -5.73294051
C       -3.86783937      -2.13886682      -3.00751169
C       -5.21500911      -1.59676898      -3.40763809
C       -3.04426940      -1.33743104      -2.19462552
H       -0.36495885      -3.40828565      -1.88021531
H       -1.75526591      -4.81954599      -3.27904663
H       -5.14959718      -3.80830388      -4.49205174
H       -4.64892059      -7.97563083      -6.21810484
H       -7.08953404      -7.81022766      -7.44573834
H       -5.37562917      -0.58470837      -3.02045283
H       -6.01256861      -2.23180640      -3.00820383
H       -5.29657322      -1.54413753      -4.49818359
H       -3.38531466      -0.35476829      -1.87581788
C       -1.79142315       1.79142315       1.79142315
C       -3.03207811       1.33041173       2.21017548
C       -3.83703857       2.13878543       3.01901594
C       -3.41294033       3.41308465       3.41670911
N       -4.20193397       4.25300868       4.23220530
C       -5.44775879       4.01010280       4.78417470
O       -6.09977242       2.97927295       4.66086509
C       -5.93785567       5.13535319       5.56190645
C       -7.10769868       5.30696042       6.27778066
C       -7.05795808       6.60708874       6.83688165
C       -5.86254216       7.15306571       6.43027494
Br      -5.25734201       8.86236392       6.86743794
O       -5.17344157       6.27096822       5.65823550
C       -2.15013442       3.87878569       2.98529777
C       -1.61564630       5.23334817       3.37042172
C       -1.34833119       3.05485875       2.17313602
H       -3.38906991       0.34629102       1.91809887
H       -4.79890747       1.73521586       3.31973520
H       -3.82372314       5.16457677       4.46165289
H       -7.89567788       4.57124738       6.37573100
H       -7.80390179       7.08338854       7.45820971
H       -0.63538026       5.42485623       2.92055388
H       -1.49695146       5.29866694       4.45696044
H       -2.29138200       6.02251115       3.02500121
H       -0.37349512       3.40350752       1.83889819
C        1.79142315      -1.79142315       1.79142315
C        3.03055987      -1.32900066       2.21310479
C        3.83551954      -2.13738104       3.02193936
C        3.41293409      -3.41309114       3.41670885
N        4.20196991      -4.25306068       4.23211736
C        5.44642313      -4.00896373       4.78664943
O        6.09687083      -2.97680302       4.66623661
C        5.93711962      -5.13470782       5.56328787
C        7.10602353      -5.30553583       6.28088039
C        7.05756150      -6.60670917       6.83765780
C        5.86378919      -7.15404006       6.42805355
Br       5.26078397      -8.86512737       6.86123252
O        5.17449872      -6.27180025       5.65634631
C        2.15167634      -3.88021952       2.98232202
C        1.61886126      -5.23636087       3.36419407
C        1.34985281      -3.05627480       2.17019835
H        3.38635738      -0.34376560       1.92333682
H        4.79617301      -1.73267638       3.32500914
H        3.82493614      -5.16567193       4.45934473
H        7.89256432      -4.56863842       6.38145353
H        7.80325497      -7.08279506       7.45945002
H        0.63970186      -5.42877931       2.91230921
H        1.49841046      -5.30375566       4.45041271
H        2.29654877      -6.02376409       3.01858149
H        0.37619523      -3.40602337       1.83368222
C       -0.00445707       0.01189536      -1.78238275
H       -0.66409135       0.67374010      -2.43557963
H        0.65740317      -0.63156657      -2.45157240
C       -0.90989263      -0.90692880      -0.91072765
C        0.90977584       0.90977584      -0.90977584
C       -0.00465871       1.77757030       0.00794375
H       -0.66225468       2.44313916      -0.64384735
H        0.64322798       2.43503045       0.67728295
C       -1.78241447       0.00034974      -0.00472694
H       -2.45427497      -0.65498947       0.64260836
H       -2.43311707       0.67328779      -0.65473579
C       -0.91132561       0.90220522       0.91563759
C       -0.01476271      -0.02253852       1.78660255
H       -0.67934791      -0.69751639       2.42135241
H        0.63392994       0.61504881       2.47327442
C        0.01484550      -1.77751727      -0.01636693
H        0.67870853      -2.42144646      -0.68295456
H       -0.62264859      -2.45592969       0.64226336
C        1.78714474       0.01002794       0.00389507
H        2.44202412       0.67113390       0.66197326
H        2.45385902      -0.65136977      -0.64189061
C        0.91606151      -0.90478549       0.90901405
