117
Properties=species:S:1:pos:R:3 pbc="F F F"
C        0.00000000       0.00000000       0.00000000
C        0.88139660       0.88139660      -0.88139660
C        1.37452417       2.08134835      -0.38785726
C        2.18340042       2.88583307      -1.19671739
C        2.50474127       2.50460368      -2.50554267
N        3.32282233       3.29574521      -3.34898754
C        3.88543829       4.53039977      -3.07241026
O        3.73001951       5.20122674      -2.06043042
C        4.73744453       5.09365286      -4.15140460
C        4.83504748       6.47693568      -4.26774691
N        5.56892725       7.10603614      -5.22078012
C        6.25058073       6.31612050      -6.08277747
C        6.23148920       4.93044377      -6.02864883
C        5.46875075       4.30497830      -5.04531074
C        2.00183580       1.27959629      -3.00257950
C        2.30693292       0.78310763      -4.39147863
C        1.19045400       0.47781999      -2.17739584
H        1.14140630       2.40697521       0.62258827
H        2.54785842       3.81287612      -0.76526006
H        3.45811126       2.93279797      -4.28069527
H        4.30662020       7.14039364      -3.58593258
H        6.82957857       6.84994606      -6.83148944
H        5.47568498       3.22263289      -4.96785707
H        1.81785996      -0.17526996      -4.59655495
H        3.38486575       0.63306431      -4.51135423
H        1.94855738       1.49789201      -5.13918753
H        0.79983187      -0.46684333      -2.55019342
C        6.98789430       4.14726919      -6.97103352
C        7.62138357       3.49136049      -7.76028071
Br       8.64568214       2.43081159      -9.03642665
C       -0.88139660      -0.88139660      -0.88139660
C       -0.45469821      -2.15399536      -1.23503620
C       -1.26502375      -2.96007276      -2.04085437
C       -2.50534321      -2.50438689      -2.50515751
N       -3.34998626      -3.29683067      -3.32073815
C       -3.10669366      -4.56766115      -3.81389352
O       -2.08202908      -5.22470154      -3.68494605
C       -4.21226192      -5.15979648      -4.61044359
C       -3.89529976      -6.07213639      -5.61229393
N       -4.81612115      -6.66622700      -6.41339537
C       -6.11232656      -6.34823634      -6.18891580
C       -6.52339545      -5.46816590      -5.19902045
C       -5.56190547      -4.86644635      -4.39068796
C       -2.93655784      -1.20783974      -2.13961401
C       -4.26040841      -0.64065217      -2.58045859
C       -2.11240289      -0.40718152      -1.32608542
H        0.50371512      -2.53617412      -0.89333424
H       -0.89000900      -3.94846121      -2.28752438
H       -4.20369724      -2.84911161      -3.61879566
H       -2.86404170      -6.35579665      -5.81310807
H       -6.82413125      -6.84194872      -6.84493410
H       -5.87252814      -4.20588702      -3.58775978
H       -4.40915933       0.37894346      -2.20892909
H       -5.08181530      -1.25307774      -2.19439125
H       -4.31277822      -0.59969774      -3.67316096
H       -2.43585967       0.59110852      -1.03843081
C       -7.92088160      -5.17962458      -5.00569083
C       -9.09127626      -4.93797123      -4.84377727
Br     -10.98370544      -4.54723820      -4.58197674
C       -0.88139660       0.88139660       0.88139660
C       -1.54953573       0.32885599       1.96533805
C       -2.35465622       1.13898230       2.77231236
C       -2.50497174       2.50546497       2.50445090
N       -3.31106788       3.35295029       3.30353691
C       -4.08302656       3.00579776       4.39942400
O       -4.26104716       1.88140624       4.84922327
C       -4.78708895       4.13466808       5.06074495
C       -5.99033102       3.87826872       5.71113034
N       -6.72991235       4.82937978       6.33645139
C       -6.23367643       6.08847638       6.32732589
C       -5.03280640       6.43275811       5.72501728
C       -4.29147631       5.44220267       5.08536080
C       -1.81977656       3.06395674       1.40027830
C       -1.91114115       4.52491104       1.04546699
C       -1.01060232       2.23802884       0.59703867
H       -1.45590760      -0.72861540       2.19850104
H       -2.85381238       0.66211448       3.61006774
H       -3.36680778       4.31147621       2.99332051
H       -6.41274797       2.87589837       5.74430007
H       -6.84779460       6.82534831       6.83787116
H       -3.33192469       5.69057825       4.64367201
H       -1.32281608       4.76344800       0.15288087
H       -1.52488992       5.13840378       1.86599060
H       -2.94905858       4.80189077       0.83468757
H       -0.47846745       2.65853429      -0.25381979
C       -4.55571254       7.79098959       5.75949488
C       -4.15614643       8.92850845       5.78836988
Br      -3.51008183      10.76778024       5.83505830
C        0.88139660      -0.88139660       0.88139660
C        2.24623652      -0.64033255       0.95716070
C        3.05099285      -1.44799943       1.76695861
C        2.50444309      -2.50545631       2.50498822
N        3.29188150      -3.34002610       3.33564747
C        4.66245121      -3.29745762       3.52833949
O        5.46343757      -2.56248277       2.96575633
C        5.19547503      -4.28406462       4.50296234
C        6.49628457      -4.74889338       4.33455213
N        7.08557181      -5.66004805       5.15012366
C        6.34750211      -6.11084894       6.19112764
C        5.05267656      -5.68722764       6.45067759
C        4.46534475      -4.75469283       5.59900221
C        1.11268125      -2.74505240       2.42627795
C        0.43660918      -3.84977410       3.19513590
C        0.31322868      -1.92332382       1.60911733
H        2.70165235       0.17069198       0.39483287
H        4.11150987      -1.21814266       1.79634207
H        2.79142408      -4.08760171       3.79257872
H        7.11929369      -4.40057122       3.51308152
H        6.84829919      -6.83691152       6.82580336
H        3.46732085      -4.38617171       5.81268238
H       -0.63948016      -3.88483203       2.99379309
H        0.56358734      -3.69422334       4.27147360
H        0.85261308      -4.82176762       2.91125622
H       -0.75857813      -2.09882891       1.54293118
C        4.32431322      -6.19957674       7.58230706
C        3.71430892      -6.62866910       8.53004674
Br       2.72798357      -7.32247517      10.06246164
