162
Properties=species:S:1:pos:R:3 pbc="F F F"
C        1.79085273       1.79085273      -1.79085273
C        1.23250247       2.49031997      -2.85254923
C        2.04730728       3.30279170      -3.64894393
C        3.42475795       3.44726520      -3.39428100
C        3.95842279       2.72988541      -2.31499493
C        3.15116747       1.90026305      -1.52312007
C        4.19984167       4.37585528      -4.23428018
N        3.50102642       5.23525234      -5.08876635
C        4.32123479       6.03680446      -5.70494515
N        4.06581818       7.03939134      -6.59261056
C        2.86517459       7.39902163      -7.14311208
O        2.85990594       8.19198185      -8.08833232
C        1.56542444       6.88950661      -6.67539918
C        0.63854424       6.48661510      -7.63184218
N       -0.60866504       6.04087978      -7.33784183
C       -0.94603872       6.02181228      -6.02673810
C       -0.09942495       6.43874033      -5.00862398
C        1.17236590       6.89864679      -5.33718432
S        5.97112914       5.81630790      -5.37793945
C        5.58275824       4.52701049      -4.29498157
C        6.70996144       3.82074098      -3.62370859
H        0.17002118       2.42139551      -3.06977667
H        1.58513374       3.83832435      -4.47616672
H        5.00155217       2.80120368      -2.03616346
H        3.59588549       1.35681807      -0.69297554
H        4.87173275       7.49172607      -7.00088647
H        0.87603875       6.51557809      -8.69309189
H       -1.94783990       5.65568496      -5.81992450
H        1.85029962       7.24513183      -4.56358715
H        6.60090850       2.73600829      -3.71912516
H        6.75137923       4.08881176      -2.56311372
H        7.68132691       4.08108572      -4.05878386
C       -0.52604363       6.38923836      -3.63416188
C       -0.88333678       6.34778046      -2.48304988
Br      -1.46104957       6.28074654      -0.62179912
C       -1.79085273      -1.79085273      -1.79085273
C       -1.21122796      -2.63905448      -2.72508921
C       -2.02745575      -3.44972896      -3.52185820
C       -3.42971777      -3.44405396      -3.39253242
C       -3.98468872      -2.57857981      -2.44003460
C       -3.17384321      -1.75067654      -1.65003084
C       -4.21413140      -4.37768114      -4.21816458
N       -3.52970201      -5.37653284      -4.91881027
C       -4.36639139      -6.15810256      -5.53849044
N       -4.13255380      -7.26231866      -6.30294761
C       -2.92873176      -7.78092360      -6.69765294
O       -2.91693252      -8.66060775      -7.56267985
C       -1.63229946      -7.34650611      -6.15152466
C       -0.58802971      -7.12491673      -7.04405507
N        0.66563396      -6.76614492      -6.66954561
C        0.88412411      -6.64806613      -5.33856964
C       -0.08752228      -6.88468452      -4.37573256
C       -1.36384329      -7.25870608      -4.78564765
S       -6.00911252      -5.75911178      -5.39715220
C       -5.59414810      -4.40928161      -4.40132058
C       -6.70180015      -3.54180810      -3.91080275
H       -0.13193959      -2.68761870      -2.84163507
H       -1.54801486      -4.10366987      -4.24794006
H       -5.05056730      -2.52804211      -2.26030990
H       -3.63546577      -1.09017322      -0.92004011
H       -4.93926093      -7.67854805      -6.74653631
H       -0.73095062      -7.23709755      -8.11666055
H        1.89454411      -6.35476063      -5.06755304
H       -2.13940292      -7.46480842      -4.05480726
H       -6.47802901      -2.48599982      -4.09201314
H       -6.86457086      -3.69901899      -2.83971486
H       -7.65111036      -3.75555351      -4.41453263
C        0.21672973      -6.73820143      -2.97588492
C        0.47154080      -6.61552184      -1.80351252
Br       0.88354873      -6.41715932       0.09211449
C       -1.79085273       1.79085273       1.79085273
C       -2.68455618       1.20997299       2.68084249
C       -3.48149342       2.02657966       3.49096983
C       -3.39216639       3.43114886       3.44298889
C       -2.47999319       3.98740781       2.53590214
C       -1.69044322       3.17550449       1.70860288
C       -4.21365414       4.21865539       4.37766760
N       -4.86682734       3.54376006       5.41445772
C       -5.48819620       4.38486790       6.18992030
N       -6.21499739       4.16143968       7.32138300
C       -6.56098457       2.96237857       7.88394517
O       -7.40075756       2.95168010       8.78778246
C       -5.99051340       1.66969872       7.47011812
C       -6.85885751       0.59536782       7.30277619
N       -6.45899837      -0.65716264       6.96822084
C       -5.12612474      -0.84214786       6.81853479
C       -4.18505652       0.16197998       7.00090287
C       -4.62051546       1.43660650       7.35107506
S       -5.40452036       6.01889241       5.74196373
C       -4.43490690       5.59344134       4.37640206
C       -4.00007110       6.68916093       3.46517897
H       -2.76908463       0.12969270       2.76241603
H       -4.17539792       1.54603655       4.17819033
H       -2.33200963       5.05597402       2.45093567
H       -0.99230879       3.63816495       1.01520537
H       -6.66963117       4.96708759       7.72762653
H       -7.93158346       0.71179620       7.44132907
H       -4.83476709      -1.85262158       6.54562406
H       -3.90654634       2.23754236       7.51492991
H       -4.20389518       6.43064821       2.42149857
H       -2.93010090       6.88577818       3.58742564
H       -4.52442083       7.62990444       3.66687122
C       -2.78171728      -0.10760704       6.82324637
C       -1.60642067      -0.33338616       6.67445905
Br       0.29393454      -0.69845191       6.43388254
C        1.79085273      -1.79085273       1.79085273
C        2.83159955      -2.51683650       1.22693561
C        3.63956101      -3.31466789       2.04481401
C        3.43840538      -3.39141588       3.43648290
C        2.38117406      -2.64612083       3.97600824
C        1.55660456      -1.85788090       3.16006514
C        4.37522265      -4.19746088       4.23729359
N        5.54322815      -4.66002871       3.62178825
C        6.29441496      -5.29069782       4.47787162
N        7.51822697      -5.86781556       4.31177754
C        8.23615096      -6.01553506       3.15562228
O        9.22615736      -6.75180833       3.16225442
C        7.89429206      -5.34672351       1.88931467
C        7.93771703      -6.09946168       0.71982281
N        7.68954101      -5.59572536      -0.51520980
C        7.40858201      -4.27277799      -0.57884833
C        7.37889091      -3.43863437       0.53041408
C        7.64429955      -3.97847351       1.78542395
S        5.67519177      -5.44006822       6.05011650
C        4.25868109      -4.57295690       5.57311230
C        3.19664078      -4.36129136       6.59647887
H        3.03225997      -2.46888133       0.16005206
H        4.44689752      -3.87537110       1.57735618
H        2.17112423      -2.63038046       5.03741461
H        0.74450940      -1.29159038       3.60957932
H        7.88916482      -6.36741002       5.10777045
H        8.18502487      -7.15865118       0.74103267
H        7.20895274      -3.89755728      -1.57874046
H        7.64297002      -3.34748015       2.66856843
H        2.21492321      -4.63991421       6.20120453
H        3.17537612      -3.31385598       6.91407262
H        3.35957878      -4.96608703       7.49553069
C        7.07090525      -2.03926659       0.38718478
C        6.81296726      -0.86729607       0.26723024
Br       6.39590334       1.02768114       0.07327389
C       -0.00445707       0.01189536      -1.78238275
H       -0.66409135       0.67374010      -2.43557963
H        0.65740317      -0.63156657      -2.45157240
C       -0.90989263      -0.90692880      -0.91072765
C        0.90977584       0.90977584      -0.90977584
C       -0.00465871       1.77757030       0.00794375
H       -0.66225468       2.44313916      -0.64384735
H        0.64322798       2.43503045       0.67728295
C       -1.78241447       0.00034974      -0.00472694
H       -2.45427497      -0.65498947       0.64260836
H       -2.43311707       0.67328779      -0.65473579
C       -0.91132561       0.90220522       0.91563759
C       -0.01476271      -0.02253852       1.78660255
H       -0.67934791      -0.69751639       2.42135241
H        0.63392994       0.61504881       2.47327442
C        0.01484550      -1.77751727      -0.01636693
H        0.67870853      -2.42144646      -0.68295456
H       -0.62264859      -2.45592969       0.64226336
C        1.78714474       0.01002794       0.00389507
H        2.44202412       0.67113390       0.66197326
H        2.45385902      -0.65136977      -0.64189061
C        0.91606151      -0.90478549       0.90901405
