154
Properties=species:S:1:pos:R:3 pbc="F F F"
C        1.79085273       1.79085273      -1.79085273
C        1.23250247       2.49031997      -2.85254923
C        2.04730728       3.30279170      -3.64894393
C        3.42475795       3.44726520      -3.39428100
C        3.95842279       2.72988541      -2.31499493
C        3.15116747       1.90026305      -1.52312007
C        4.19984167       4.37585528      -4.23428018
N        3.50102642       5.23525234      -5.08876635
C        4.32123479       6.03680446      -5.70494515
N        4.06581818       7.03939134      -6.59261056
C        2.86517459       7.39902163      -7.14311208
O        2.85990594       8.19198185      -8.08833232
C        1.56542444       6.88950661      -6.67539918
C        0.63854424       6.48661510      -7.63184218
N       -0.60866504       6.04087978      -7.33784183
C       -0.94603872       6.02181228      -6.02673810
C       -0.09942495       6.43874033      -5.00862398
Br      -0.65806108       6.37391994      -3.20883363
C        1.17236590       6.89864679      -5.33718432
S        5.97112914       5.81630790      -5.37793945
C        5.58275824       4.52701049      -4.29498157
C        6.70996144       3.82074098      -3.62370859
H        0.17002118       2.42139551      -3.06977667
H        1.58513374       3.83832435      -4.47616672
H        5.00155217       2.80120368      -2.03616346
H        3.59588549       1.35681807      -0.69297554
H        4.87173275       7.49172607      -7.00088647
H        0.87603875       6.51557809      -8.69309189
H       -1.94783990       5.65568496      -5.81992450
H        1.85029962       7.24513183      -4.56358715
H        6.60090850       2.73600829      -3.71912516
H        6.75137923       4.08881176      -2.56311372
H        7.68132691       4.08108572      -4.05878386
C       -1.79085273      -1.79085273      -1.79085273
C       -1.48683536      -1.95244354      -3.13609276
C       -2.29570879      -2.76982993      -3.93350419
C       -3.40823404      -3.45276050      -3.40530960
C       -3.68835869      -3.27077469      -2.04416975
C       -2.89224138      -2.43948147      -1.24282774
C       -4.16729295      -4.34947285      -4.29321133
N       -3.62277638      -4.65788291      -5.54438583
C       -4.37541959      -5.51318054      -6.17438427
N       -4.20525068      -6.09914710      -7.39342229
C       -3.22849806      -5.85727952      -8.32153073
O       -3.35712537      -6.32863058      -9.45446416
C       -2.02269673      -5.05707376      -8.05055974
C       -1.63004137      -4.12284972      -9.00411043
N       -0.51686694      -3.35448868      -8.89870095
C        0.24653358      -3.55113009      -7.79791516
C       -0.04846778      -4.48521907      -6.81425251
Br       1.07559689      -4.68652830      -5.31376109
C       -1.19240716      -5.26625661      -6.94953325
S       -5.80026612      -5.98263818      -5.38247220
C       -5.39480401      -4.96016752      -4.04977876
C       -6.35080645      -4.89478854      -2.90881601
H       -0.62526188      -1.45864123      -3.57729025
H       -2.03682133      -2.87760600      -4.98519747
H       -4.51007683      -3.77553638      -1.55330610
H       -3.13639765      -2.31914200      -0.19013945
H       -4.96014323      -6.68799427      -7.71620779
H       -2.21249944      -3.96324413      -9.90896516
H        1.12821718      -2.91921015      -7.73677658
H       -1.44018878      -6.01500421      -6.20382561
H       -6.56229797      -3.85577112      -2.63797287
H       -5.94403769      -5.42036395      -2.03890308
H       -7.31289552      -5.36269381      -3.14560717
C       -1.79085273       1.79085273       1.79085273
C       -3.17038879       1.63366656       1.77131632
C       -3.96896013       2.44027171       2.58981107
C       -3.41064627       3.40315690       3.45250098
C       -2.01552432       3.53703011       3.45074870
C       -1.21006282       2.74402699       2.62046078
C       -4.31328080       4.16292976       4.33376656
N       -5.64297224       3.74153529       4.44053758
C       -6.28675824       4.46867940       5.30754675
N       -7.57799850       4.38353581       5.73628576
C       -8.56917759       3.55543497       5.28269575
O       -9.73004027       3.76718738       5.64299246
C       -8.33450799       2.41781269       4.37800956
C       -9.20636801       2.24289248       3.30774103
N       -9.12909219       1.21303286       2.42793152
C       -8.14688367       0.30751433       2.64811367
C       -7.25565288       0.38246155       3.70982494
Br      -5.91771782      -0.92716901       3.93414368
C       -7.36065864       1.44490091       4.60263746
S       -5.40952631       5.73117377       6.02467641
C       -4.01527333       5.28089089       5.10858607
C       -2.77960291       6.09580710       5.27900100
H       -3.63867490       0.88807908       1.13443937
H       -5.04751021       2.29841736       2.55369723
H       -1.50374527       4.23619767       4.09897636
H       -0.13059985       2.87255469       2.64252456
H       -7.88655523       5.10463753       6.37315253
H      -10.01877960       2.94253353       3.12339559
H       -8.10496380      -0.50304093       1.92584669
H       -6.68729318       1.52123758       5.45048784
H       -2.36610901       6.38270953       4.30722342
H       -2.02658110       5.53489514       5.84182847
H       -2.96686666       7.02406301       5.83026683
C        1.79085273      -1.79085273       1.79085273
C        3.14212253      -1.50301372       1.93023541
C        3.93965179      -2.31161712       2.74777400
C        3.40591554      -3.40759700       3.45279161
C        2.03879202      -3.67160504       3.29290608
C        1.23697269      -2.87588855       2.46168935
C        4.29566536      -4.16656122       4.34775055
N        5.55810907      -3.63501850       4.63191755
C        6.18952562      -4.38461716       5.48884162
N        7.41859099      -4.22319371       6.05603537
C        8.35634378      -3.26248266       5.78848186
O        9.49375384      -3.40016767       6.24629861
C        8.09071692      -2.06395104       4.97566227
C        9.03665862      -1.69686393       4.02347897
N        8.93575355      -0.59276619       3.24153683
C        7.84808247       0.18809962       3.44252881
C        6.87334240      -0.08094371       4.39365326
Br       5.39094002       1.06601764       4.59977012
C        7.00387295      -1.21603689       5.18828718
S        5.38502802      -5.79213926       5.98820921
C        4.04411460      -5.38234667       4.97828902
C        2.88964721      -6.32353867       4.94122513
H        3.58808275      -0.65422001       1.41889059
H        4.99609132      -2.06563047       2.83790301
H        1.54385832      -4.47972839       3.81533260
H        0.17956512      -3.10730169       2.35881230
H        7.73919768      -4.97443848       6.65070913
H        9.93136511      -2.29365952       3.85968409
H        7.79019011       1.06197705       2.79955649
H        6.26515790      -1.44359061       5.95027009
H        2.60188957      -6.54524651       3.90890587
H        2.03249534      -5.89796629       5.47284309
H        3.11985153      -7.28239526       5.41894971
C       -0.00445707       0.01189536      -1.78238275
H       -0.66409135       0.67374010      -2.43557963
H        0.65740317      -0.63156657      -2.45157240
C       -0.90989263      -0.90692880      -0.91072765
C        0.90977584       0.90977584      -0.90977584
C       -0.00465871       1.77757030       0.00794375
H       -0.66225468       2.44313916      -0.64384735
H        0.64322798       2.43503045       0.67728295
C       -1.78241447       0.00034974      -0.00472694
H       -2.45427497      -0.65498947       0.64260836
H       -2.43311707       0.67328779      -0.65473579
C       -0.91132561       0.90220522       0.91563759
C       -0.01476271      -0.02253852       1.78660255
H       -0.67934791      -0.69751639       2.42135241
H        0.63392994       0.61504881       2.47327442
C        0.01484550      -1.77751727      -0.01636693
H        0.67870853      -2.42144646      -0.68295456
H       -0.62264859      -2.45592969       0.64226336
C        1.78714474       0.01002794       0.00389507
H        2.44202412       0.67113390       0.66197326
H        2.45385902      -0.65136977      -0.64189061
C        0.91606151      -0.90478549       0.90901405
