141
Properties=species:S:1:pos:R:3 pbc="F F F"
C        0.00000000       0.00000000       0.00000000
C        0.88094871       0.88094871      -0.88094871
C        0.32259844       1.58041594      -1.94264521
C        1.13740326       2.39288767      -2.73903990
C        2.51485393       2.53736117      -2.48437698
C        3.04851877       1.81998139      -1.40509090
C        2.24126345       0.99035902      -0.61321604
C        3.28993764       3.46595126      -3.32437615
N        2.59112239       4.32534832      -4.17886233
C        3.41133077       5.12690044      -4.79504112
N        3.15591415       6.12948731      -5.68270653
C        1.95527057       6.48911761      -6.23320805
O        1.95000192       7.28207783      -7.17842830
C        0.65552042       5.97960259      -5.76549516
C       -0.27135979       5.57671107      -6.72193816
N       -1.51856906       5.13097575      -6.42793781
C       -1.85594274       5.11190826      -5.11683407
C       -1.00932897       5.52883631      -4.09871996
C        0.26246188       5.98874277      -4.42728029
S        5.06122512       4.90640388      -4.46803542
C        4.67285421       3.61710646      -3.38507754
C        5.80005741       2.91083696      -2.71380456
H       -0.73988284       1.51149148      -2.15987264
H        0.67522971       2.92842033      -3.56626269
H        4.09164814       1.89129965      -1.12625944
H        2.68598147       0.44691404       0.21692848
H        3.96182872       6.58182205      -6.09098244
H       -0.03386528       5.60567406      -7.78318786
H       -2.85774392       4.74578094      -4.91002047
H        0.94039560       6.33522780      -3.65368313
H        5.69100448       1.82610427      -2.80922114
H        5.84147521       3.17890773      -1.65320970
H        6.77142289       3.17118170      -3.14887984
C       -1.43594765       5.47933434      -2.72425786
C       -1.79324080       5.43787644      -1.57314585
Br      -2.37095360       5.37084252       0.28810490
C       -0.88094871      -0.88094871      -0.88094871
C       -0.74694450      -0.83636701      -2.26234808
C       -1.55322326      -1.65498930      -3.06111828
C       -2.49257376      -2.54246179      -2.50155653
C       -2.60335990      -2.56562850      -1.10460267
C       -1.81075743      -1.73555336      -0.29852772
C       -3.25273284      -3.42136976      -3.40616245
N       -2.85171141      -3.49950183      -4.74411980
C       -3.57520040      -4.36782989      -5.39024204
N       -3.50446358      -4.77403160      -6.68961283
C       -2.70036444      -4.29073425      -7.68649754
O       -2.92540064      -4.63554539      -8.84956202
C       -1.57388900      -3.37129091      -7.45543825
C       -1.43085637      -2.28422846      -8.31220461
N       -0.41431350      -1.38887645      -8.23715455
C        0.51079308      -1.61000349      -7.27358919
C        0.46788771      -2.68717236      -6.39894264
C       -0.58147326      -3.59561159      -6.50140009
S       -4.81117234      -5.11992776      -4.50456433
C       -4.35285376      -4.21932478      -3.10285968
C       -5.14433550      -4.42328397      -1.85707945
H       -0.01966904      -0.17970653      -2.73210572
H       -1.42983731      -1.59898644      -4.14108899
H       -3.28332371      -3.23357651      -0.59230701
H       -1.92103388      -1.77730434       0.78237119
H       -4.22011137      -5.41763470      -6.99688715
H       -2.14674875      -2.09828587      -9.10996202
H        1.31006956      -0.87520416      -7.23292289
H       -0.63285217      -4.45545466      -5.84099970
H       -5.44013469      -3.46324341      -1.42295178
H       -4.56195803      -4.98893519      -1.12269943
H       -6.06646820      -4.98671004      -2.03830619
C        1.48744645      -2.85851618      -5.39657480
C        2.34132689      -3.00201664      -4.55709174
Br       3.72197934      -3.23404473      -3.19971862
C       -0.88094871       0.88094871       0.88094871
C       -2.23785127       0.99775024       0.61005808
C       -3.03897058       1.80089672       1.42946354
C       -2.51001069       2.48676640       2.53981499
C       -1.13766511       2.34781552       2.78811043
C       -0.32541780       1.55840348       1.96101724
C       -3.43148553       3.25454313       3.39423639
N       -4.80693408       3.08568587       3.20271309
C       -5.48033688       3.77429157       4.07864387
N       -6.82656816       3.87177983       4.26976001
C       -7.83171554       3.33404865       3.51183205
O       -8.99084062       3.70481222       3.71485521
C       -7.61304612       2.33298176       2.45459028
C       -8.27889862       2.50364594       1.24474489
N       -8.20006423       1.63322480       0.20705547
C       -7.43721795       0.53202908       0.40355256
C       -6.76703108       0.26223250       1.58896371
C       -6.86997834       1.16744487       2.64106174
S       -4.56646566       4.71212629       5.15707247
C       -3.11265304       4.15480685       4.40757833
C       -1.81838947       4.67817080       4.92813867
H       -2.68825499       0.46859193      -0.22536563
H       -4.09885707       1.87720723       1.19384843
H       -0.65480654       2.82183418       3.63256652
H        0.73591807       1.47127456       2.18061055
H       -7.13209038       4.52692561       4.97561723
H       -8.91736926       3.36707303       1.07055436
H       -7.38772293      -0.14460724      -0.44505820
H       -6.36925597       0.97534075       3.58470981
H       -1.18476738       5.03238493       4.10917757
H       -1.28804406       3.89965680       5.48589178
H       -1.95671473       5.52422863       5.61054106
C       -5.97169304      -0.93032094       1.72627244
C       -5.30559743      -1.92908445       1.84126851
Br      -4.22857716      -3.54400057       2.02720742
C        0.88094871      -0.88094871       0.88094871
C        2.13874837      -1.26856833       0.43834288
C        2.94272592      -2.06898165       1.25762327
C        2.51856093      -2.48300110       2.53503005
C        1.24506716      -2.07445470       2.95406920
C        0.42691073      -1.28662587       2.13130192
C        3.45099548      -3.26459840       3.36467118
N        4.78242883      -3.36554347       2.94736074
C        5.48855056      -4.02406633       3.82065543
N        6.81850935      -4.32330846       3.82629019
C        7.74559341      -4.08408884       2.84791398
O        8.85530088      -4.61547783       2.93972934
C        7.49691260      -3.22626414       1.67744142
C        7.91168987      -3.68474150       0.43085808
N        7.78343558      -2.97543310      -0.71852418
C        7.23572786      -1.74239633      -0.60532460
C        6.82704405      -1.19019477       0.60098847
C        6.97617136      -1.93543961       1.76687397
S        4.64702661      -4.62176813       5.16686969
C        3.18333403      -3.93792348       4.55378071
C        1.93578859      -4.14805522       5.34085512
H        2.51086584      -0.95333431      -0.53271887
H        3.92324521      -2.36073881       0.88592872
H        0.85097903      -2.32905666       3.92917154
H       -0.55619912      -0.98642974       2.48573641
H        7.14186152      -4.91069082       4.58208088
H        8.37695488      -4.66145257       0.31658920
H        7.14027134      -1.19918651      -1.54140036
H        6.67944475      -1.52359451       2.72626727
H        1.12538076      -4.50378462       4.69716450
H        1.62957988      -3.21648439       5.82752837
H        2.06425316      -4.89597912       6.13125214
C        6.25086690       0.12875764       0.64553528
C        5.76831854       1.23338029       0.68284324
Br       4.98807865       3.01946169       0.74316705
