125
Properties=species:S:1:pos:R:3 pbc="F F F"
C        0.00000000       0.00000000       0.00000000
C        0.88175389       0.88175389      -0.88175389
C        1.39585337       0.37264025      -2.07417961
C        2.20321890       1.17760495      -2.88367600
C        2.49661475       2.49129390      -2.49483923
C        1.96515684       2.99674291      -1.30071461
C        1.16062108       2.19041050      -0.49171028
C        3.35912371       3.36851795      -3.34455578
N        3.15198292       4.66136153      -3.30296307
N        4.00843618       5.36773370      -4.10647698
H        3.78600056       6.34840707      -4.23804333
C        4.99351545       4.78892777      -4.89843713
N        5.20028232       3.49572629      -4.93995709
N        4.34067328       2.78876433      -4.14016120
H        4.56136225       1.80754232      -4.00920057
C        5.86134170       5.66744831      -5.74255860
C        6.42109504       5.15609695      -6.92121515
C        7.23134363       5.96335151      -7.72411409
C        7.48717801       7.27940531      -7.34388374
C        6.94513233       7.79488071      -6.16684626
C        6.13302607       6.98878555      -5.36318951
H        1.16662726      -0.64343049      -2.38590894
H        2.56684630       0.77557101      -3.82515648
H        2.18059427       4.01807199      -0.99331878
H        0.75787371       2.59340686       0.43389667
H        6.22405646       4.12881952      -7.22176375
H        7.65626139       5.55491871      -8.63745448
H        7.15607950       8.81707841      -5.86214614
H        5.74858895       7.39750149      -4.43301389
C        8.32368619       8.11191994      -8.16897371
C        9.02426178       8.80915095      -8.85998656
Br      10.15703327       9.93651452      -9.97729588
C       -0.88175389      -0.88175389      -0.88175389
C       -1.21424545      -0.45958528      -2.16884250
C       -2.02113095      -1.26481396      -2.97855495
C       -2.49620050      -2.49115627      -2.49539112
C       -2.14630797      -2.91124783      -1.20505856
C       -1.34201912      -2.10443866      -0.39628408
C       -3.36162483      -3.36679216      -3.34378045
N       -3.30475383      -4.66118048      -3.15037322
N       -4.14980827      -5.36335262      -3.96948597
H       -4.02578598      -6.36986769      -3.97679728
C       -4.98026735      -4.78065419      -4.91995881
N       -5.03673611      -3.48594129      -5.11328831
N       -4.18812409      -2.78391497      -4.29755976
H       -4.31029779      -1.77709940      -4.29070795
C       -5.85165271      -5.65641817      -5.76327772
C       -6.23041241      -5.22594168      -7.04205305
C       -7.04106277      -6.03241251      -7.84533396
C       -7.47839582      -7.26580525      -7.36626599
C       -7.11744147      -7.69876925      -6.09064858
C       -6.30515903      -6.89354621      -5.28629590
H       -0.84343188       0.48747586      -2.55314970
H       -2.24183812      -0.93565496      -3.99008071
H       -2.50363950      -3.86536859      -0.82297696
H       -1.08115203      -2.44022542       0.60399355
H       -5.89129582      -4.26333862      -7.42000529
H       -7.32447263      -5.68766986      -8.83649210
H       -7.47016034      -8.65449754      -5.71064617
H       -6.06348913      -7.23264967      -4.28296554
C       -8.31560133      -8.09709492      -8.19188358
C       -9.01676095      -8.79330002      -8.88333832
Br     -10.15047675      -9.91900479     -10.00136214
C       -0.88175389       0.88175389       0.88175389
C       -1.66531255       1.87791186       0.29944882
C       -2.47379999       2.68659108       1.10410879
C       -2.49320081       2.49732587       2.49222121
C       -1.71113989       1.48573460       3.06573986
C       -0.90193819       0.68012883       2.26067484
C       -3.34907673       3.35187376       3.37124694
N       -3.80017743       2.83083338       4.48529671
N       -4.55774053       3.70637657       5.21852976
H       -5.06414001       3.30707652       6.00123443
C       -4.83790525       5.01177995       4.83119515
N       -4.38670953       5.53254444       3.71671173
N       -3.63310112       4.65554018       2.98095752
H       -3.12749665       5.05359466       2.19701383
C       -5.68782826       5.86894171       5.71457862
C       -6.44686637       6.90244392       5.14909686
C       -7.24942748       7.71094225       5.95843951
C       -7.28670809       7.48990134       7.33385764
C       -6.52616918       6.47200920       7.90868093
C       -5.72377073       5.66128150       7.09994889
H       -1.66084801       2.02593013      -0.77767243
H       -3.10286592       3.43473236       0.62997551
H       -1.72472076       1.32536636       4.14189793
H       -0.29726027      -0.09839664       2.71852027
H       -6.42051595       7.07866727       4.07545651
H       -7.83565808       8.50678614       5.50619036
H       -6.54359942       6.30826227       8.98344236
H       -5.11236505       4.89642447       7.57031482
C       -8.11149598       8.32352808       8.16955578
C       -8.80225584       9.02169048       8.86945297
Br      -9.91915611      10.15056003      10.00112754
C        0.88175389      -0.88175389       0.88175389
C        0.99528647      -2.24378106       0.60360570
C        1.80201419      -3.05354750       1.40893816
C        2.49156129      -2.49697889       2.49420771
C        2.37988808      -1.12511593       2.75761035
C        1.57147868      -0.31775171       1.95351147
C        3.35812959      -3.34497670       3.36909116
N        4.38795149      -2.77964958       3.94870644
N        5.10026441      -3.64419303       4.73818942
H        5.99389027      -3.30321499       5.07534570
C        4.78419155      -4.98706561       4.90962319
N        3.75417665      -5.55224338       4.32954568
N        3.04451577      -4.68895890       3.53612415
H        2.15137482      -5.02959781       3.19713251
C        5.64689733      -5.83335510       5.79109617
C        5.73626456      -7.21117481       5.55096778
C        6.54011226      -8.01678391       6.36191306
C        7.24841603      -7.44497641       7.41707462
C        7.15738238      -6.07697884       7.67249809
C        6.35459460      -5.26937661       6.86102992
H        0.46885283      -2.68134911      -0.24109623
H        1.90526171      -4.10527375       1.15703833
H        2.91721388      -0.68143142       3.59333974
H        1.49049210       0.74408990       2.17098170
H        5.18462314      -7.66186351       4.72815308
H        6.60291991      -9.08344301       6.16227167
H        7.69833109      -5.63255489       8.50441807
H        6.26949799      -4.21245915       7.09714719
C        8.07548184      -8.27406431       8.25503369
C        8.76814946      -8.96842542       8.95682441
Br       9.88813442     -10.09114861      10.09156065
