146
Properties=species:S:1:pos:R:3 pbc="F F F"
C        1.79165792       1.79165792      -1.79165792
C        2.30575739       1.28254428      -2.98408363
C        3.11312293       2.08750898      -3.79358003
C        3.40651878       3.40119793      -3.40474326
C        2.87506086       3.90664693      -2.21061863
C        2.07052511       3.10031452      -1.40161430
C        4.26902773       4.27842198      -4.25445981
N        4.06188694       5.57126556      -4.21286709
N        4.91834020       6.27763772      -5.01638101
H        4.69590458       7.25831109      -5.14794736
C        5.90341948       5.69883179      -5.80834115
N        6.11018635       4.40563031      -5.84986112
N        5.25057731       3.69866836      -5.05006523
H        5.47126628       2.71744634      -4.91910459
C        6.77124572       6.57735233      -6.65246262
C        7.33099907       6.06600098      -7.83111917
C        8.14124766       6.87325553      -8.63401812
C        8.39708204       8.18930933      -8.25378777
C        7.85503636       8.70478474      -7.07675028
C        7.04293009       7.89868958      -6.27309354
H        2.07653129       0.26647353      -3.29581296
H        3.47675032       1.68547503      -4.73506051
H        3.09049829       4.92797602      -1.90322281
H        1.66777774       3.50331088      -0.47600735
H        7.13396048       5.03872354      -8.13166778
H        8.56616541       6.46482274      -9.54735851
H        8.06598353       9.72698243      -6.77205016
H        6.65849298       8.30740552      -5.34291792
C        9.23359021       9.02182397      -9.07887773
C        9.93416581       9.71905498      -9.76989058
Br      11.06693729      10.84641855     -10.88719991
C       -1.79165792      -1.79165792      -1.79165792
C       -2.12493352      -1.36905170      -3.07840009
C       -2.93182108      -2.17427908      -3.88811177
C       -3.40610646      -3.40106067      -3.40529283
C       -3.05542936      -3.82158334      -2.11531373
C       -2.25113961      -3.01477622      -1.30653810
C       -4.27151830      -4.27670436      -4.25368685
N       -4.21396498      -5.57115501      -4.06089960
N       -5.05907304      -6.27333908      -4.87994681
H       -4.93459256      -7.27979368      -4.88777678
C       -5.89023524      -5.69058592      -5.82977126
N       -5.94738643      -4.39581053      -6.02248081
N       -5.09872228      -3.69376910      -5.20681951
H       -5.22135452      -2.68701294      -5.19944975
C       -6.76160572      -6.56636276      -6.67309219
C       -7.14114946      -6.13547370      -7.95149606
C       -7.95179835      -6.94194792      -8.75477504
C       -8.38834589      -8.17576074      -8.27607250
C       -8.02660781      -8.60914403      -7.00081954
C       -7.21432577      -7.80391735      -6.19647009
H       -1.75473066      -0.42164438      -3.46244274
H       -3.15314323      -1.84475754      -4.89938509
H       -3.41214796      -4.77604306      -1.73350610
H       -1.98965966      -3.35090195      -0.30653437
H       -6.80264778      -5.17254194      -8.32916209
H       -8.23582098      -6.59688083      -9.74564484
H       -8.37871397      -9.56520821      -6.62109394
H       -6.97204009      -8.14336998      -5.19340635
C       -9.22554880      -9.00705573      -9.10168738
C       -9.92670624      -9.70326528      -9.79313984
Br     -11.06041851     -10.82897725     -10.91115999
C       -1.79165792       1.79165792       1.79165792
C       -2.57580779       2.78730409       1.20927341
C       -3.38429675       3.59598188       2.01393330
C       -3.40310675       3.40722953       3.40212369
C       -2.62045211       2.39614619       3.97572812
C       -1.81125021       1.59054198       3.17066175
C       -4.25897350       4.26178609       4.28114992
N       -4.70946166       3.74099424       5.39556369
N       -5.46707808       4.61652830       6.12875256
H       -5.97303473       4.21733190       6.91179640
C       -5.74787694       5.92168144       5.74103405
N       -5.29729381       6.44219727       4.62618669
N       -4.54363248       5.56519972       3.89047870
H       -4.03847084       5.96314978       3.10619659
C       -6.59779013       6.77885573       6.62441481
C       -7.35742715       7.81186163       6.05883043
C       -8.15998794       8.62036250       6.86817086
C       -8.19667058       8.39982300       8.24368555
C       -7.43553511       7.38243123       8.81860504
C       -6.63313592       6.57170116       8.00987613
H       -2.57180214       2.93492045       0.13209520
H       -4.01382047       4.34370980       1.53975559
H       -2.63356984       2.23617610       5.05195118
H       -1.20610919       0.81241463       3.62857214
H       -7.33154488       7.98769256       4.98511437
H       -8.74668604       9.41581727       6.41584335
H       -7.45250146       7.21908048       9.89343418
H       -6.02126757       5.80724946       8.48029938
C       -9.02145770       9.23345383       9.07938038
C       -9.71221691       9.93161965       9.77927480
Br     -10.82911613      11.06049474      10.91094488
C        1.79165792      -1.79165792       1.79165792
C        2.58083307      -2.78293815       1.20861407
C        3.38933482      -3.59160371       2.01327341
C        3.40312304      -3.40722635       3.40211058
C        2.61542177      -2.40047631       3.97642835
C        1.80621818      -1.59488527       3.17135048
C        4.25891189      -4.26185688       4.28114074
N        4.70418505      -3.74319503       5.39863951
N        5.46225577      -4.61864989       6.13145327
H        5.96443996      -4.22034752       6.91737555
C        5.74845373      -5.92165782       5.74048087
N        5.30308611      -6.44004257       4.62254910
N        4.54897377      -5.56310360       3.88723352
H        4.04758455      -5.96015316       3.10007950
C        6.59828358      -6.77893892       6.62383818
C        7.36301195      -7.80771017       6.05739709
C        8.16557014      -8.61623263       6.86671855
C        8.19716966      -8.39997107       8.24303841
C        7.43096299      -7.38684837       8.81876002
C        6.62855734      -6.57609817       8.01005769
H        2.58072768      -2.92712597       0.13096413
H        4.02274927      -4.33580595       1.53873064
H        2.62460272      -2.24390282       5.05319157
H        1.19714090      -0.82015436       3.62980071
H        7.34110924      -7.98019297       4.98304959
H        8.75624225      -9.40836732       6.41373709
H        7.44398618      -7.22687756       9.89415239
H        6.01275664      -5.81510413       8.48095564
C        9.02195030      -9.23363664       9.07870497
C        9.71270408      -9.93183156       9.77857572
Br      10.82959452     -11.06075369      10.91020753
C       -0.00445707       0.01189536      -1.78238275
H       -0.66409135       0.67374010      -2.43557963
H        0.65740317      -0.63156657      -2.45157240
C       -0.90989263      -0.90692880      -0.91072765
C        0.90977584       0.90977584      -0.90977584
C       -0.00465871       1.77757030       0.00794375
H       -0.66225468       2.44313916      -0.64384735
H        0.64322798       2.43503045       0.67728295
C       -1.78241447       0.00034974      -0.00472694
H       -2.45427497      -0.65498947       0.64260836
H       -2.43311707       0.67328779      -0.65473579
C       -0.91132561       0.90220522       0.91563759
C       -0.01476271      -0.02253852       1.78660255
H       -0.67934791      -0.69751639       2.42135241
H        0.63392994       0.61504881       2.47327442
C        0.01484550      -1.77751727      -0.01636693
H        0.67870853      -2.42144646      -0.68295456
H       -0.62264859      -2.45592969       0.64226336
C        1.78714474       0.01002794       0.00389507
H        2.44202412       0.67113390       0.66197326
H        2.45385902      -0.65136977      -0.64189061
C        0.91606151      -0.90478549       0.90901405
