174
Properties=species:S:1:pos:R:3 pbc="F F F"
C        1.79294847       1.79294847      -1.79294847
C        2.47113810       1.22682048      -2.86939708
C        3.27730653       2.03058176      -3.68246067
C        3.40074764       3.39853924      -3.42274603
C        2.70628692       3.95198261      -2.34361400
C        1.90659100       3.15090634      -1.52362573
O        4.13373198       4.29127870      -4.16007378
C        5.12423576       3.73004667      -5.01532454
C        5.87843461       4.78575170      -5.82917913
O        5.77562541       5.99555088      -5.59019549
N        6.60788622       4.34285466      -6.94966412
N        6.99840897       5.40473514      -7.80834049
H        6.81888822       6.33572698      -7.42960929
C        7.01886691       5.32048861      -9.17432702
O        7.00655648       6.32115111      -9.88490041
S        7.12283696       3.72047430      -9.87847609
C        7.40751514       2.71675602      -8.50633688
C        7.08517831       3.07466232      -7.25236828
C        7.38586575       2.09318667      -6.19477527
C        6.57652088       0.96522902      -5.98932185
C        6.87547141       0.06128505      -4.96597417
C        8.00463442       0.26115728      -4.17320232
C        8.83884231       1.35540620      -4.39229219
C        8.52776811       2.27223807      -5.39892928
H        2.37653729       0.16636640      -3.08981856
H        3.77679098       1.55347474      -4.51740293
H        2.79206014       5.01698335      -2.13623639
H        1.37875670       3.59912245      -0.68578224
H        4.63710000       3.07353661      -5.74400015
H        5.84786666       3.20467917      -4.38804920
H        7.82439895       1.73537917      -8.71413642
H        5.69596619       0.79446858      -6.60621084
H        6.22607845      -0.79343354      -4.79496816
H        9.73089646       1.50384485      -3.78739855
H        9.18910126       3.12190024      -5.56299794
C        8.31355258      -0.67282909      -3.12161351
C        8.57227155      -1.45504268      -2.24090788
Br       8.99059823      -2.71981589      -0.81688137
C       -1.79294847      -1.79294847      -1.79294847
C       -2.60686942      -1.20353281      -2.75695343
C       -3.41383982      -2.00675359      -3.56975555
C       -3.40286366      -3.39677556      -3.42239368
C       -2.57357815      -3.97238171      -2.45592366
C       -1.77220677      -3.17295686      -1.63595944
O       -4.12330739      -4.28801731      -4.17375975
C       -5.22742469      -3.74886113      -4.89332115
C       -5.96248751      -4.79757689      -5.73330103
O       -5.74150427      -6.00897281      -5.61089470
N       -6.82121228      -4.33146027      -6.74773246
N       -7.19865649      -5.35065277      -7.66217534
H       -6.91175837      -6.28979072      -7.38267539
C       -7.34608375      -5.15831325      -9.00928555
O       -7.31549422      -6.09323047      -9.80388331
S       -7.64075200      -3.52197571      -9.55905964
C       -7.88373856      -2.66152809      -8.08534139
C       -7.42432667      -3.08991599      -6.89796626
C       -7.70911012      -2.22751661      -5.73720097
C       -6.97872305      -1.05299441      -5.49935428
C       -7.25852621      -0.26464718      -4.37955724
C       -8.29359970      -0.62665948      -3.51873484
C       -9.05259914      -1.76880138      -3.76514018
C       -8.75824507      -2.57022809      -4.87046230
H       -2.61814343      -0.12452619      -2.89005263
H       -4.02186747      -1.50951798      -4.31628319
H       -2.55432087      -5.05406977      -2.33688924
H       -1.13811426      -3.63924682      -0.88630030
H       -4.86106553      -2.99521539      -5.59835584
H       -5.93311824      -3.34173540      -4.16574140
H       -8.39531852      -1.70709825      -8.17149777
H       -6.17262916      -0.75600747      -6.16800898
H       -6.66787381       0.62729638      -4.18703564
H       -9.87297207      -2.04366912      -3.10549866
H       -9.36055004      -3.45876427      -5.05468513
C       -8.58324203       0.18835222      -2.36744720
C       -8.82581748       0.87092452      -1.40324379
Br      -9.21804147       1.97458620       0.15579156
C       -1.79294847       1.79294847       1.79294847
C       -2.41944983       2.90724540       1.24066043
C       -3.23109679       3.71629738       2.04295479
C       -3.42004870       3.40861298       3.39337123
C       -2.79084669       2.28169578       3.92934105
C       -1.97220834       1.47557796       3.13333677
O       -4.21019696       4.10408292       4.27080459
C       -4.56069029       5.42797619       3.88094049
C       -5.46964410       6.12851270       4.89520863
O       -5.67998007       5.66023103       6.02116068
N       -6.16479611       7.27411330       4.46149560
N       -7.20532449       7.65682825       5.34933185
H       -7.21422463       7.14012737       6.22987248
C       -8.41644520       8.15096153       4.94627581
O       -9.39993191       8.13237045       5.68030565
S       -8.49954394       8.87039345       3.35184997
C       -6.84604659       8.91746772       2.86709373
C       -5.90172104       8.11894538       3.39154250
C       -4.53822270       8.27993906       2.85566594
C       -4.17279798       7.74942866       1.60884510
C       -2.86673721       7.90133764       1.13465578
C       -1.93585346       8.61701850       1.88612206
C       -2.29640797       9.18293727       3.10719547
C       -3.59449753       9.01127709       3.59316083
H       -2.29009202       3.15311741       0.18951282
H       -3.71086089       4.56567971       1.57112805
H       -2.93575230       2.03101896       4.97850862
H       -1.48709332       0.60645362       3.57011445
H       -5.12452930       5.38708396       2.94302351
H       -3.63789779       6.00628118       3.79641606
H       -6.60678916       9.60572142       2.06140396
H       -4.89254939       7.19450634       1.00958987
H       -2.58468356       7.46135036       0.18157914
H       -1.57734321       9.75777252       3.68702412
H       -3.86563644       9.46106235       4.54730065
C       -0.59163329       8.77592698       1.39477673
C        0.53415110       8.90901283       0.98327502
Br       2.35444925       9.12420140       0.31791156
C        1.79294847      -1.79294847       1.79294847
C        1.20283638      -2.61442644       2.75009284
C        2.00555946      -3.42679740       3.55799210
C        3.39504884      -3.42160038       3.40538369
C        3.97015924      -2.59769418       2.43403010
C        3.17241394      -1.77809806       1.63061108
O        4.28188425      -4.18985730       4.11334292
C        3.79306984      -4.74771611       5.32882102
C        4.82929926      -5.61826819       6.04579799
O        6.01841887      -5.63900501       5.70394789
N        4.36124531      -6.49801491       7.04114479
N        5.32546007      -7.47202237       7.41400215
H        6.25255912      -7.31575839       7.01590698
C        5.02673468      -8.77384248       7.71310538
O        5.87736087      -9.65789471       7.67735242
S        3.38500253      -9.12704761       8.20973721
C        2.69152278      -7.55826626       8.38081900
C        3.17814759      -6.46692575       7.76713558
C        2.45836412      -5.20418429       8.01127928
C        1.24298782      -4.91710511       7.37097882
C        0.59232874      -3.70285446       7.60754744
C        1.13368075      -2.79191313       8.51340014
C        2.31907304      -3.08160269       9.18586496
C        2.98254857      -4.28415655       8.93223034
H        0.12281191      -2.63674514       2.87316521
H        1.50592240      -4.06088316       4.28086309
H        5.05075324      -2.59030849       2.30421815
H        3.63905669      -1.14017738       0.88442732
H        2.94519188      -5.40387060       5.10557429
H        3.52712073      -3.92150243       5.99197187
H        1.78952311      -7.50092656       8.98346488
H        0.80663288      -5.62329295       6.66671978
H       -0.33317297      -3.47634144       7.08444460
H        2.73412691      -2.38081620       9.90719674
H        3.90660410      -4.50104110       9.46635424
C        0.46046908      -1.54288371       8.75898422
C       -0.10334570      -0.49682156       8.96466089
Br      -1.01498651       1.19457245       9.29722266
C       -0.00445707       0.01189536      -1.78238275
H       -0.66409135       0.67374010      -2.43557963
H        0.65740317      -0.63156657      -2.45157240
C       -0.90989263      -0.90692880      -0.91072765
C        0.90977584       0.90977584      -0.90977584
C       -0.00465871       1.77757030       0.00794375
H       -0.66225468       2.44313916      -0.64384735
H        0.64322798       2.43503045       0.67728295
C       -1.78241447       0.00034974      -0.00472694
H       -2.45427497      -0.65498947       0.64260836
H       -2.43311707       0.67328779      -0.65473579
C       -0.91132561       0.90220522       0.91563759
C       -0.01476271      -0.02253852       1.78660255
H       -0.67934791      -0.69751639       2.42135241
H        0.63392994       0.61504881       2.47327442
C        0.01484550      -1.77751727      -0.01636693
H        0.67870853      -2.42144646      -0.68295456
H       -0.62264859      -2.45592969       0.64226336
C        1.78714474       0.01002794       0.00389507
H        2.44202412       0.67113390       0.66197326
H        2.45385902      -0.65136977      -0.64189061
C        0.91606151      -0.90478549       0.90901405
