81
Properties=species:S:1:pos:R:3 pbc="F F F"
C        0.00000000       0.00000000       0.00000000
C        2.42560247      -3.30587188      -2.43294852
C        2.24537421      -1.84623192      -2.75683068
O        2.12760701      -1.45372412      -3.91238508
N        2.13275429      -1.06210260      -1.62012684
C        1.92717324       0.34213509      -1.67256549
C        0.88957252       0.88957252      -0.88957252
C        0.61016590       2.25573987      -0.91694653
C        1.38579909       3.08910564      -1.70808898
F        1.12564774       4.40302048      -1.73132927
C        2.44851427       2.59120627      -2.44936911
C        2.73227890       1.22094974      -2.42386381
H        2.91356920      -3.80762913      -3.27337581
H        1.44805431      -3.76077512      -2.25233103
H        3.05654007      -3.42984744      -1.54783457
H        1.69227632      -1.53511484      -0.83722125
H       -0.20097993       2.68329415      -0.33576388
H        3.06195062       3.28412433      -3.01846661
C        3.96090447       0.82315438      -3.06091801
C        4.98987839       0.49000077      -3.59445090
Br       6.65364219      -0.04868045      -4.45712846
C       -4.32977700       1.13510324       1.64199465
C       -3.96439234       0.46427409       0.34414529
O       -4.58224338       0.68712482      -0.69114940
N       -2.82705912      -0.31913496       0.45541556
C       -2.27143258      -1.02749062      -0.64295062
C       -0.88957252      -0.88957252      -0.88957252
C       -0.28291813      -1.53014503      -1.96978913
C       -1.05044252      -2.33648180      -2.79606939
F       -0.47011775      -2.95966466      -3.83021509
C       -2.40184484      -2.53681853      -2.55042628
C       -3.01388733      -1.89618451      -1.46702060
H       -5.39607949       1.37836438       1.63839923
H       -3.74527747       2.05221721       1.75345005
H       -4.13369271       0.47053942       2.48862609
H       -2.15406888       0.02808795       1.13159819
H        0.77524786      -1.41182999      -2.18149597
H       -2.95744494      -3.21428989      -3.19280673
C       -4.36107378      -2.31107877      -1.17282432
C       -5.48934242      -2.65855270      -0.92643493
Br      -7.31365739      -3.22038867      -0.52804414
C       -2.41514624       2.44337237      -3.30583950
C       -2.74411705       2.25963217      -1.84777626
O       -3.90124414       2.14423993      -1.45921611
N       -1.61020841       2.14105468      -1.06048456
C       -1.66764474       1.93129037       0.34293871
C       -0.88957252       0.88957252       0.88957252
C       -0.92205480       0.60602338       2.25477412
C       -1.71337643       1.38152597       3.08809131
F       -1.74150311       1.11738087       4.40111351
C       -2.44981231       2.44807509       2.59120225
C       -2.41917252       2.73600066       1.22191926
H       -3.25249602       2.93549846      -3.80867860
H       -2.23614444       1.46668118      -3.76321541
H       -1.52770208       3.07193859      -3.42511346
H       -0.82720506       1.69961386      -1.53243618
H       -0.34471740      -0.20824372       2.68160443
H       -3.01915711       3.06112761       3.28425683
C       -3.05118068       3.96782488       0.82597130
C       -3.58048751       4.99947767       0.49436488
Br      -4.43633188       6.66757296      -0.04181465
C       -2.61296329      -3.98383530       0.18180710
C       -1.15357614      -3.80303855       0.50651055
O       -0.32445592      -4.66713795       0.24358593
N       -0.87796981      -2.54683742       1.02191092
C        0.43337704      -2.13236077       1.37613600
C        0.88957252      -0.88957252       0.88957252
C        2.17761664      -0.43448014       1.17075552
C        3.01009804      -1.20812453       1.96477113
F        4.24535041      -0.77107474       2.24357235
C        2.57436136      -2.41063297       2.50409532
C        1.28227139      -2.87018080       2.22464026
H       -2.85770242      -5.04979182       0.18722648
H       -2.81907874      -3.56576833      -0.80707938
H       -3.23903959      -3.48563428       0.92793251
H       -1.48100211      -1.81396658       0.66141827
H        2.54598654       0.50976125       0.78185281
H        3.24036762      -2.96354929       3.16062465
C        0.84890041      -4.01880289       2.97727356
C        0.48595222      -4.98077389       3.60760395
Br      -0.10090431      -6.53619965       4.62679487
