161
Properties=species:S:1:pos:R:3 pbc="F F F"
C        0.00000000       0.00000000       0.00000000
C        0.88131338       0.88131338      -0.88131338
C        2.04404762       0.36010055      -1.44098152
C        2.85648750       1.17561771      -2.23549613
C        2.51590907       2.51517066      -2.47031536
C        1.33644995       3.01724548      -1.91514979
C        0.52124397       2.20412256      -1.11931850
N        3.40314167       3.27730786      -3.26087115
C        3.31991312       4.63045045      -3.53920525
O        2.47964267       5.41642173      -3.11983385
C        4.40007970       5.16913857      -4.41461477
C        4.82479900       6.49104109      -4.21306608
C        5.82540383       7.04693548      -5.01451778
C        6.40196576       6.29037665      -6.03315796
C        5.96315117       4.98093286      -6.24514809
C        4.96693360       4.41049696      -5.44276936
S        6.67692916       4.00017194      -7.53972846
O        7.63291920       4.80239217      -8.27034855
O        7.05214945       2.73983279      -6.93324061
N        5.34379866       3.66451508      -8.52674291
C        4.98786795       4.62745461      -9.51017984
C        4.21187090       5.73299443      -9.16213059
C        3.90362068       6.69600657     -10.12566121
C        4.38371793       6.55102023     -11.42698368
Br       3.97022743       7.85575836     -12.73024005
C        5.16985756       5.45291267     -11.77359645
C        5.47666944       4.49014692     -10.81013850
H        2.33028849      -0.67289635      -1.26213787
H        3.76221299       0.74768521      -2.65775223
H        1.01929262       4.04252324      -2.07843226
H       -0.38666507       2.62030279      -0.69037615
H        4.22852723       2.78695328      -3.57951907
H        4.37516128       7.09208459      -3.42334238
H        6.15137730       8.07052873      -4.84255820
H        7.18086578       6.72761605      -6.65533250
H        4.62706571       3.39971852      -5.65142729
H        5.36160987       2.68785034      -8.82078536
H        3.82607393       5.84976959      -8.15345888
H        3.29185839       7.55195565      -9.85231360
H        5.55508203       5.34226496     -12.78391706
H        6.10816774       3.64835911     -11.08036559
C       -0.88131338      -0.88131338      -0.88131338
C       -0.55886673      -2.22284549      -1.06341747
C       -1.36067735      -3.02295581      -1.88396818
C       -2.48346972      -2.48739285      -2.53053252
C       -2.80255544      -1.14332794      -2.32296185
C       -2.00225040      -0.33965215      -1.50278249
N       -3.22399295      -3.35518284      -3.36214488
C       -4.30040998      -3.02302895      -4.16612988
O       -4.78117026      -1.90820938      -4.32651862
C       -4.89541074      -4.15385092      -4.93457139
C       -5.44690794      -3.88556081      -6.19643742
C       -6.02732005      -4.90822028      -6.95131677
C       -6.07293887      -6.20637206      -6.44618944
C       -5.54130409      -6.46722679      -5.18070124
C       -4.94961183      -5.45188830      -4.41869980
S       -5.59343224      -8.11012848      -4.51326884
O       -6.29437575      -8.97501619      -5.43626799
O       -4.24846488      -8.40922241      -4.06753555
N       -6.51657875      -7.90934033      -3.10913757
C       -7.93187792      -7.96032464      -3.23329985
C       -8.64290005      -6.82944365      -3.63465223
C      -10.02845102      -6.90128347      -3.79555397
C      -10.69013421      -8.10701118      -3.56457645
Br     -12.56444209      -8.20587073      -3.78591302
C       -9.97942487      -9.24163052      -3.17531129
C       -8.59455794      -9.16874605      -3.01365087
H        0.31324475      -2.65380902      -0.57896573
H       -1.08606115      -4.06659524      -2.01499404
H       -3.66915201      -0.68343074      -2.78766537
H       -2.26548929       0.70583354      -1.36435812
H       -2.86402241      -4.29785390      -3.43312327
H       -5.42156893      -2.87246777      -6.59655155
H       -6.44418031      -4.68841393      -7.93186999
H       -6.52640538      -6.99986900      -7.03753996
H       -4.57118512      -5.68084527      -3.42618113
H       -6.10076720      -8.43166071      -2.33781765
H       -8.13733184      -5.88382474      -3.80814582
H      -10.57987137      -6.01558580      -4.10067046
H      -10.49020483     -10.18585324      -3.00520597
H       -8.04332832     -10.06161269      -2.73195143
C       -0.88131338       0.88131338       0.88131338
C       -2.21804825       0.54821472       1.07886672
C       -3.02577152       1.36692946       1.87490036
C       -2.50550637       2.52368979       2.47219894
C       -1.15740300       2.83380833       2.27763389
C       -0.34628828       2.01698555       1.48141120
N       -3.39367233       3.30945669       3.23819166
C       -3.12669215       4.53058829       3.83228838
O       -2.08104864       5.16495013       3.76989949
C       -4.26030340       5.13178250       4.59174713
C       -4.37326233       6.52982178       4.62582207
C       -5.41059697       7.14281927       5.33344085
C       -6.33747543       6.36404655       6.02397838
C       -6.21115129       4.97270283       6.00537799
C       -5.18049839       4.34700578       5.29269575
S       -7.37458216       3.96019293       6.88205447
O       -8.30709176       4.81128705       7.58728111
O       -7.82726461       2.95626025       5.94169798
N       -6.39216261       3.14777079       7.99512324
C       -6.10039358       3.80200541       9.22310341
C       -5.07313770       4.74312127       9.29073695
C       -4.82228549       5.41215272      10.49085025
C       -5.60856947       5.14248464      11.61066774
Br      -5.27215315       6.05028689      13.23378580
C       -6.64379558       4.21107823      11.54149286
C       -6.89324520       3.54193604      10.34177362
H       -2.64230833      -0.33878139       0.61600306
H       -4.06794997       1.08906925       2.01063121
H       -0.70145876       3.70918221       2.72960715
H        0.69733372       2.28436267       1.33698492
H       -4.34679696       2.97269774       3.27550487
H       -3.64945349       7.14682211       4.09431265
H       -5.49162044       8.22765526       5.34518853
H       -7.14373395       6.84584943       6.57423095
H       -5.09230519       3.26436490       5.32154143
H       -6.65892245       2.16450141       8.04682171
H       -4.44980940       4.95318128       8.42631171
H       -4.01558732       6.13898702      10.54155329
H       -7.26581793       4.00643035      12.40901576
H       -7.71543308       2.83376821      10.28769114
C        0.88131338      -0.88131338       0.88131338
C        0.49023041      -2.18550001       1.16939927
C        1.29336076      -2.98447533       1.98976525
C        2.48628487      -2.48450993       2.53060030
C        2.87252189      -1.17913402       2.21718931
C        2.07113246      -0.37668247       1.39687010
N        3.22496552      -3.34624505       3.37011011
C        4.36952138      -3.03628074       4.08376670
O        4.92670311      -1.94731385       4.14188129
C        4.94313227      -4.15440869       4.88629208
C        5.59067545      -3.84609294       6.09213778
C        6.15546537      -4.85636731       6.87502441
C        6.08903160      -6.18310177       6.45336700
C        5.46148995      -6.48552132       5.24222085
C        4.88455642      -5.48224076       4.45340275
S        5.37000261      -8.16594819       4.68087876
O        6.07536807      -9.01665617       5.61363568
O        3.98322556      -8.40372927       4.33826801
N        6.21059609      -8.11141302       3.21304754
C        7.62522843      -8.24647673       3.25379725
C        8.42837397      -7.14177421       3.53684774
C        9.81448979      -7.29344173       3.61735694
C       10.38509697      -8.55139596       3.42522891
Br      12.26030529      -8.75801201       3.53790855
C        9.58281962      -9.65910586       3.15444120
C        8.19739954      -9.50648845       3.07306687
H       -0.43611471      -2.58767239       0.76797233
H        0.96475300      -3.99816775       2.20472968
H        3.79385523      -0.74898812       2.59740477
H        2.38804044       0.63913646       1.17510988
H        2.81359702      -4.25748923       3.52391332
H        5.65312619      -2.81099975       6.42646230
H        6.64769621      -4.60474477       7.81202325
H        6.53072950      -6.96684822       7.06623661
H        4.42927255      -5.74620078       3.50273820
H        5.71455715      -8.65166909       2.50401933
H        7.99368427      -6.15652967       3.67908846
H       10.43748382      -6.42845508       3.83018873
H       10.02300534     -10.64309154       3.01516717
H        7.57567836     -10.37720128       2.88401279
