190
Properties=species:S:1:pos:R:3 pbc="F F F"
C        1.79121740       1.79121740      -1.79121740
C        2.95395164       1.27000458      -2.35088554
C        3.76639153       2.08552173      -3.14540015
C        3.42581309       3.42507469      -3.38021938
C        2.24635397       3.92714951      -2.82505382
C        1.43114800       3.11402658      -2.02922253
N        4.31304569       4.18721188      -4.17077517
C        4.22981715       5.54035447      -4.44910927
O        3.38954670       6.32632576      -4.02973788
C        5.30998372       6.07904259      -5.32451880
C        5.73470302       7.40094511      -5.12297011
C        6.73530786       7.95683950      -5.92442180
C        7.31186978       7.20028067      -6.94306198
C        6.87305519       5.89083688      -7.15505212
C        5.87683763       5.32040099      -6.35267338
S        7.58683318       4.91007597      -8.44963249
O        8.54282322       5.71229619      -9.18025257
O        7.96205347       3.64973681      -7.84314464
N        6.25370268       4.57441911      -9.43664693
C        5.89777198       5.53735863     -10.42008387
C        5.12177492       6.64289846     -10.07203462
C        4.81352470       7.60591059     -11.03556523
C        5.29362195       7.46092426     -12.33688771
C        6.07976158       6.36281669     -12.68350047
C        6.38657347       5.40005094     -11.72004252
H        3.24019251       0.23700768      -2.17204189
H        4.67211701       1.65758923      -3.56765626
H        1.92919664       4.95242727      -2.98833628
H        0.52323895       3.53020681      -1.60028017
H        5.13843125       3.69685730      -4.48942309
H        5.28506530       8.00198861      -4.33324641
H        7.06128132       8.98043275      -5.75246223
H        8.09076981       7.63752007      -7.56523653
H        5.53696974       4.30962254      -6.56133132
H        6.27151389       3.59775436      -9.73068939
H        4.73597795       6.75967361      -9.06336290
H        4.20176241       8.46185967     -10.76221762
H        6.46498605       6.25216898     -13.69382108
H        7.01807176       4.55826313     -11.99026962
C        4.97856804       8.45505316     -13.32988759
C        4.71471039       9.28763611     -14.16152499
Br       4.28807489      10.63385232     -15.50621234
C       -1.79121740      -1.79121740      -1.79121740
C       -1.35169735      -3.05749836      -2.16564606
C       -2.15592852      -3.85563310      -2.98575178
C       -3.39857929      -3.39222981      -3.44029807
C       -3.83200865      -2.12576162      -3.04078702
C       -3.02968804      -1.32424774      -2.22046132
N       -4.13642169      -4.24866842      -4.28594265
C       -5.33042484      -3.96372845      -4.92512759
O       -5.94297612      -2.90364575      -4.89898847
C       -5.88903732      -5.06914941      -5.75535838
C       -6.61280051      -4.73571888      -6.91009885
C       -7.16692106      -5.73407535      -7.71557275
C       -7.01322129      -7.07476945      -7.36722170
C       -6.30942395      -7.40362006      -6.20590018
C       -5.74253740      -6.41190135      -5.39547325
S       -6.10600808      -9.10269361      -5.73783994
O       -6.81601096      -9.94179690      -6.67756412
O       -4.69325248      -9.28472396      -5.47695847
N       -6.87086012      -9.16447331      -4.22943529
C       -8.27729934      -9.37068457      -4.20723057
C       -9.14764694      -8.29657814      -4.39248291
C      -10.52688895      -8.51590502      -4.41220656
C      -11.02391493      -9.80976173      -4.25775726
C      -10.15492196     -10.88630726      -4.08484953
C       -8.77637586     -10.66611182      -4.06417926
H       -0.38701358      -3.43032705      -1.83190145
H       -1.78927069      -4.83902508      -3.26906673
H       -4.79197294      -1.72581857      -3.35216868
H       -3.38442809      -0.33846242      -1.93083542
H       -3.68909784      -5.12859602      -4.50701779
H       -6.74358549      -3.69002201      -7.18669282
H       -7.71900158      -5.46239993      -8.61277479
H       -7.44692012      -7.84918174      -7.99742454
H       -5.22598935      -6.69847729      -4.48345695
H       -6.31257178      -9.71258238      -3.57480348
H       -8.77012749      -7.28425595      -4.50463103
H      -11.20206042      -7.67500462      -4.54877466
H      -10.53813962     -11.89751289      -3.97532360
H       -8.10342670     -11.51161544      -3.95156237
C      -12.44571608     -10.03678829      -4.28100442
C      -13.63647455     -10.22692304      -4.30047391
Br     -15.56183027     -10.53435484      -4.33195444
C       -1.79121740       1.79121740       1.79121740
C       -2.82104531       1.22053925       2.53325720
C       -3.63570547       2.03393689       3.32767105
C       -3.43046561       3.41978830       3.38085325
C       -2.38142651       3.97382337       2.64330742
C       -1.56444897       3.16292523       1.84702290
N       -4.31321625       4.17222571       4.18559079
C       -4.35923772       5.54980982       4.31023335
O       -3.66410304       6.36479406       3.71671323
C       -5.39779431       6.07133331       5.24441750
C       -5.99179983       7.30953587       4.95728254
C       -6.96145127       7.84773403       5.80738387
C       -7.33723743       7.15880962       6.95916538
C       -6.72967074       5.93559110       7.25368236
C       -5.76276040       5.38246551       6.40468609
S       -7.18627985       5.04299282       8.71726896
O       -8.14783189       5.82091678       9.46662332
O       -7.47356372       3.68862028       8.29275092
N       -5.72788057       4.96461701       9.57227114
C       -5.38593550       6.06699947      10.40227951
C       -4.78399253       7.19925136       9.85346411
C       -4.49122250       8.29443841      10.66933963
C       -4.81337537       8.25247013      12.02558841
C       -5.42634947       7.12633879      12.57339048
C       -5.71771981       6.03155304      11.75739408
H       -3.00239884       0.14964614       2.49719710
H       -4.43677943       1.56614912       3.89443396
H       -2.17025496       5.03849729       2.66120794
H       -0.76054805       3.61855471       1.27462318
H       -5.03844945       3.63909445       4.64716775
H       -5.69953493       7.85824192       4.06252347
H       -7.42019589       8.80497113       5.56900929
H       -8.09274336       7.58202128       7.61876177
H       -5.28796565       4.44359286       6.67636508
H       -5.60148287       4.03218661       9.96628816
H       -4.52129766       7.23754257       8.80017424
H       -4.01475582       9.17175756      10.23932632
H       -5.68901914       7.09435115      13.62760582
H       -6.21565036       5.16580863      12.18514552
C       -4.51443623       9.38252344      12.86654912
C       -4.26407470      10.32894309      13.57085371
Br      -3.85926128      11.85922362      14.70965466
C        1.79121740      -1.79121740       1.79121740
C        1.34984908      -3.05580095       2.16919173
C        2.15412594      -3.85390277       2.98928470
C        3.39867928      -3.39214321       3.44028468
C        3.83390514      -2.12741184       3.03724032
C        3.03154539      -1.32593534       2.21691638
N        4.13649973      -4.24835748       4.28617555
C        5.33241928      -3.96457589       4.92228572
O        5.94711462      -2.90582655       4.89266917
C        5.89046154      -5.06943052       5.75365305
C        6.61731655      -4.73510970       6.90619200
C        7.17103769      -5.73294235       7.71258912
C        7.01383005      -7.07403415       7.36734823
C        6.30693663      -7.40383029       6.20817728
C        5.74042545      -6.41261908       5.39686746
S        6.09901991      -9.10344511       5.74407661
O        6.80923271      -9.94207086       6.68406841
O        4.68534966      -9.28307689       5.48650837
N        6.86060190      -9.16994789       4.23421893
C        8.26656068      -9.37913069       4.20952311
C        9.13952018      -8.30645515       4.39073267
C       10.51834187      -8.52860986       4.40804880
C       11.01235786      -9.82381580       4.25526025
C       10.14077361     -10.89890762       4.08639752
C        8.76264766     -10.67588777       4.06813151
H        0.38370095      -3.42731383       1.83822731
H        1.78601732      -4.83593934       3.27540584
H        4.79534357      -1.72882134       3.34579528
H        3.38772812      -0.34149373       1.92450409
H        3.68781076      -5.12689152       4.51000936
H        6.75084768      -3.68911516       7.18033749
H        7.72554668      -5.46055390       8.60807571
H        7.44723030      -7.84803697       7.99825913
H        5.22138701      -6.70001268       4.48652391
H        6.29981585      -9.71825222       3.58188957
H        8.76433762      -7.29311898       4.50155787
H       11.19554057      -7.68883433       4.54146480
H       10.52166212     -11.91113365       3.97818035
H        8.08771154     -11.52022139       3.95867158
C       12.43372986     -10.05375140       4.27602753
C       13.62412890     -10.24632246       4.29342013
Br      15.54890347     -10.55769358       4.32154250
C       -0.00445707       0.01189536      -1.78238275
H       -0.66409135       0.67374010      -2.43557963
H        0.65740317      -0.63156657      -2.45157240
C       -0.90989263      -0.90692880      -0.91072765
C        0.90977584       0.90977584      -0.90977584
C       -0.00465871       1.77757030       0.00794375
H       -0.66225468       2.44313916      -0.64384735
H        0.64322798       2.43503045       0.67728295
C       -1.78241447       0.00034974      -0.00472694
H       -2.45427497      -0.65498947       0.64260836
H       -2.43311707       0.67328779      -0.65473579
C       -0.91132561       0.90220522       0.91563759
C       -0.01476271      -0.02253852       1.78660255
H       -0.67934791      -0.69751639       2.42135241
H        0.63392994       0.61504881       2.47327442
C        0.01484550      -1.77751727      -0.01636693
H        0.67870853      -2.42144646      -0.68295456
H       -0.62264859      -2.45592969       0.64226336
C        1.78714474       0.01002794       0.00389507
H        2.44202412       0.67113390       0.66197326
H        2.45385902      -0.65136977      -0.64189061
C        0.91606151      -0.90478549       0.90901405
