126
Properties=species:S:1:pos:R:3 pbc="F F F"
C        1.79158089       1.79158089      -1.79158089
C        2.03783464       3.11268214      -1.42250613
C        2.84147144       3.91909157      -2.23287910
C        3.40994309       3.40243416      -3.40713334
C        3.14013742       2.07712851      -3.77647365
C        2.33588120       1.27120838      -2.96496586
C        4.23230361       4.31254635      -4.25597408
O        3.91038735       5.50049281      -4.28398092
C        5.35851610       3.79826280      -5.00758883
O        5.88080981       2.56478680      -4.72476113
C        6.93383951       2.36542436      -5.56219864
C        7.73399734       1.22572079      -5.59580393
C        8.76860905       1.21797212      -6.53818202
C        8.96955276       2.30756369      -7.38977427
Br      10.38014245       2.25023728      -8.65121498
C        8.15168991       3.44460190      -7.33291783
C        7.10808403       3.46662259      -6.39060407
C        6.09791519       4.38933865      -6.01705887
H        1.60701969       3.52600408      -0.51399158
H        3.02184461       4.95406297      -1.94646823
H        3.53393277       1.65957476      -4.69975468
H        2.13514740       0.24435929      -3.26074655
H        7.56124728       0.39330959      -4.92438796
H        9.41875714       0.34784951      -6.59879166
H        8.31482149       4.28884605      -7.99595636
H        5.91682474       5.37324178      -6.42861889
C       -1.79158089      -1.79158089      -1.79158089
C       -1.98425272      -3.13087151      -1.45789868
C       -2.78802055      -3.93706706      -2.26835450
C       -3.41008748      -3.40252982      -3.40689330
C       -3.19402794      -2.05826891      -3.74144273
C       -2.38958929      -1.25257767      -2.92988848
C       -4.23055507      -4.31172328      -4.25854569
O       -3.87264988      -5.48717390      -4.33503729
C       -5.39605141      -3.81084122      -4.95747510
O       -5.94731458      -2.60437310      -4.61867006
C       -7.03261121      -2.41303634      -5.41581496
C       -7.86875417      -1.29931896      -5.38744894
C       -8.93304226      -1.29551773      -6.29620320
C       -9.12718894      -2.36382121      -7.17588057
Br     -10.57894773      -2.31265730      -8.38998968
C       -8.27269033      -3.47503175      -7.18148756
C       -7.19897209      -3.49279756      -6.27354104
C       -6.14883389      -4.39360553      -5.96187330
H       -1.51153653      -3.55830460      -0.57717421
H       -2.92651778      -4.98579699      -2.01006104
H       -3.63037235      -1.62494815      -4.63794172
H       -2.23080067      -0.21100963      -3.19844294
H       -7.70054259      -0.48320152      -4.69520072
H       -9.61175450      -0.44540930      -6.30823450
H       -8.43065145      -4.30292148      -7.86605097
H       -5.95041170      -5.35775742      -6.41051628
C       -1.79158089       1.79158089       1.79158089
C       -2.60107503       1.20773634       2.76421154
C       -3.41031848       2.01597143       3.56715220
C       -3.40246086       3.40998640       3.40706334
C       -2.59696659       3.98359070       2.41318230
C       -1.78774424       3.17397655       1.61033465
C       -4.30908950       4.22669477       4.26503977
O       -5.38435029       3.72194254       4.58856824
C       -3.92003617       5.55609714       4.68823442
O       -2.61887669       5.96857231       4.58290874
C       -2.55024252       7.23371266       5.07750733
C       -1.39713373       8.01212012       5.14626821
C       -1.54170742       9.29387955       5.68917622
C       -2.78689874       9.74728863       6.13270334
Br      -2.93447057      11.49033203       6.85679211
C       -3.93171252       8.94204189       6.05545523
C       -3.80150409       7.65143958       5.51236702
C       -4.67411303       6.55997039       5.27022930
H       -2.61537428       0.12949482       2.90214624
H       -4.04972383       1.55452651       4.31812546
H       -2.59803971       5.05662105       2.23860145
H       -1.16587791       3.63033973       0.84403560
H       -0.44139452       7.63926657       4.79828373
H       -0.66667304       9.93605813       5.76266713
H       -4.89582201       9.29965868       6.40414321
H       -5.73208664       6.49906157       5.48753720
C        1.79158089      -1.79158089       1.79158089
C        2.77958903      -1.20973137       2.58370251
C        3.58814087      -2.01869444       3.38660680
C        3.40219767      -3.40935514       3.40795779
C        2.41657290      -3.98403059       2.59313610
C        1.60820978      -3.17370087       1.79014478
C        4.31278168      -4.23288867       4.25515368
O        5.47072905      -3.83639162       4.38774042
C        3.83311251      -5.44515602       4.88609920
O        2.49091750      -5.69716323       4.98227702
C        2.34336287      -6.87899242       5.63910723
C        1.12789293      -7.49078736       5.93684177
C        1.19471128      -8.71078026       6.61927166
C        2.42701593      -9.26652312       6.97335167
Br       2.46775376     -10.92091048       7.89293047
C        3.63626462      -8.62818287       6.66476215
C        3.58457821      -7.40133365       5.97939883
C        4.53692658      -6.46483374       5.50255239
H        2.93331671      -0.13353879       2.58015985
H        4.36637226      -1.56078592       3.99521763
H        2.27389702      -5.06120020       2.55816499
H        0.84587581      -3.63057847       1.16379896
H        0.18388962      -7.04060799       5.65444721
H        0.26925288      -9.22335795       6.87278748
H        4.59032935      -9.06433955       6.94495500
H        5.61404006      -6.51547370       5.58917164
C       -0.00445707       0.01189536      -1.78238275
H       -0.66409135       0.67374010      -2.43557963
H        0.65740317      -0.63156657      -2.45157240
C       -0.90989263      -0.90692880      -0.91072765
C        0.90977584       0.90977584      -0.90977584
C       -0.00465871       1.77757030       0.00794375
H       -0.66225468       2.44313916      -0.64384735
H        0.64322798       2.43503045       0.67728295
C       -1.78241447       0.00034974      -0.00472694
H       -2.45427497      -0.65498947       0.64260836
H       -2.43311707       0.67328779      -0.65473579
C       -0.91132561       0.90220522       0.91563759
C       -0.01476271      -0.02253852       1.78660255
H       -0.67934791      -0.69751639       2.42135241
H        0.63392994       0.61504881       2.47327442
C        0.01484550      -1.77751727      -0.01636693
H        0.67870853      -2.42144646      -0.68295456
H       -0.62264859      -2.45592969       0.64226336
C        1.78714474       0.01002794       0.00389507
H        2.44202412       0.67113390       0.66197326
H        2.45385902      -0.65136977      -0.64189061
C        0.91606151      -0.90478549       0.90901405
