105
Properties=species:S:1:pos:R:3 pbc="F F F"
C        0.00000000       0.00000000       0.00000000
C        0.88167687       0.88167687      -0.88167687
C        1.12793061       2.20277812      -0.51260210
C        1.93156742       3.00918755      -1.32297507
C        2.50003907       2.49253014      -2.49722932
C        2.23023340       1.16722449      -2.86656963
C        1.42597717       0.36130435      -2.05506184
C        3.32239958       3.40264232      -3.34607005
O        3.00048333       4.59058879      -3.37407689
C        4.44861208       2.88835877      -4.09768481
O        4.97090578       1.65488278      -3.81485711
C        6.02393549       1.45552034      -4.65229462
C        6.82409331       0.31581676      -4.68589991
C        7.85870503       0.30806809      -5.62827800
C        8.05964873       1.39765967      -6.47987024
Br       9.47023842       1.34033325      -7.74131096
C        7.24178589       2.53469787      -6.42301381
C        6.19818000       2.55671857      -5.48070005
C        5.18801116       3.47943463      -5.10715485
H        0.69711567       2.61610005       0.39591245
H        2.11194059       4.04415894      -1.03656420
H        2.62402875       0.74967074      -3.78985065
H        1.22524337      -0.66554473      -2.35084253
H        6.65134325      -0.51659444      -4.01448393
H        8.50885311      -0.56205451      -5.68888763
H        7.40491747       3.37894202      -7.08605233
H        5.00692071       4.46333775      -5.51871486
C       -0.88167687      -0.88167687      -0.88167687
C       -1.09439889      -0.53444036      -2.21447158
C       -1.90496296      -1.34030180      -3.01846528
C       -2.49428336      -2.50097785      -2.49453732
C       -2.28680895      -2.82972358      -1.14749498
C       -1.47569142      -2.02268436      -0.34396758
C       -3.37855145      -3.30949994      -3.38306057
O       -4.03275566      -2.70178726      -4.23060609
C       -3.44890898      -4.74876303      -3.23698365
O       -2.50055402      -5.42372701      -2.51636464
C       -2.80682939      -6.74750440      -2.57741666
C       -2.08577567      -7.77183153      -1.96820278
C       -2.57234871      -9.07113164      -2.15157077
C       -3.72252481      -9.30451580      -2.91013803
Br      -4.34510328     -11.07916583      -3.12761352
C       -4.42798602      -8.25556170      -3.51594985
C       -3.95054979      -6.94451774      -3.34053110
C       -4.34895980      -5.65360516      -3.77203568
H       -0.64192781       0.35997016      -2.63534563
H       -2.07759823      -1.05893040      -4.05613510
H       -2.76069207      -3.70084571      -0.70201236
H       -1.32059958      -2.28873974       0.69879815
H       -1.19518157      -7.56792699      -1.38612420
H       -2.03976782      -9.90201905      -1.69389937
H       -5.31968638      -8.44410408      -4.10612136
H       -5.19291800      -5.39758011      -4.39847522
C       -0.88167687       0.88167687       0.88167687
C       -0.48033204       1.18064622       2.18233257
C       -1.29061373       1.98416452       2.98895179
C       -2.49746162       2.49988814       2.49244877
C       -2.89845744       2.17724886       1.18832121
C       -2.08700753       1.37316188       0.38217396
C       -3.34359374       3.32420677       3.40331145
O       -3.32509792       3.03921378       4.60083730
C       -4.14572916       4.41013015       2.87879636
O       -3.91736226       4.90166240       1.62162101
C       -4.79330045       5.92178244       1.41666755
C       -4.88695802       6.68419314       0.25465883
C       -5.86129588       7.68874801       0.24500723
C       -6.68508915       7.89782649       1.35426300
Br      -7.99155618       9.26667717       1.29364929
C       -6.56772595       7.11835471       2.51341690
C       -5.59273230       6.10526254       2.53760378
C       -5.15947356       5.13659343       3.47853366
H        0.45353133       0.79106200       2.57977260
H       -0.97852365       2.20576462       4.00837546
H       -3.84603479       2.52926426       0.78825110
H       -2.40756785       1.13119050      -0.62821717
H       -4.23619291       6.50588379      -0.59284394
H       -5.96895770       8.30897092      -0.64224239
H       -7.20945652       7.28768424       3.37277106
H       -5.53484117       4.97412726       4.48000491
C        0.88167687      -0.88167687       0.88167687
C        2.14617897      -1.26148686       0.43564501
C        2.94975321      -2.07181381       1.24216302
C        2.49522219      -2.49368668       2.50088966
C        1.21422327      -2.11933101       2.93047323
C        0.41104139      -1.30861336       2.12268861
C        3.37592759      -3.38543796       3.30974640
O        4.09204802      -4.17688316       2.69621783
C        3.37248296      -3.30623085       4.75594184
O        2.81633321      -2.23024708       5.39406538
C        2.98421669      -2.41669162       6.73084213
C        2.55312182      -1.54475519       7.72793298
C        2.82285627      -1.92459378       9.04760107
C        3.49107350      -3.11984876       9.32625638
Br       3.83073851      -3.59366320      11.12748092
C        3.91772118      -3.97828471       8.30349168
C        3.65380361      -3.60940344       6.97239157
C        3.91154693      -4.16836167       5.69469203
H        2.51325679      -0.93979351      -0.53574703
H        3.93246802      -2.37549614       0.88469958
H        0.81839131      -2.46186977       3.88328907
H       -0.57992466      -1.02320687       2.46725896
H        2.03857009      -0.62195648       7.48870618
H        2.50444921      -1.27286622       9.85837080
H        4.43860765      -4.90443899       8.52686519
H        4.42714934      -5.09231403       5.46950996
