113
Properties=species:S:1:pos:R:3 pbc="F F F"
C        0.00000000       0.00000000       0.00000000
C        0.88167687       0.88167687      -0.88167687
C        1.12793061       2.20277812      -0.51260210
C        1.93156742       3.00918755      -1.32297507
C        2.50003907       2.49253014      -2.49722932
C        2.23023340       1.16722449      -2.86656963
C        1.42597717       0.36130435      -2.05506184
C        3.32239958       3.40264232      -3.34607005
O        3.00048333       4.59058879      -3.37407689
C        4.44861208       2.88835877      -4.09768481
O        4.97090578       1.65488278      -3.81485711
C        6.02393549       1.45552034      -4.65229462
C        6.82409331       0.31581676      -4.68589991
C        7.85870503       0.30806809      -5.62827800
C        8.05964873       1.39765967      -6.47987024
C        7.24178589       2.53469787      -6.42301381
C        6.19818000       2.55671857      -5.48070005
C        5.18801116       3.47943463      -5.10715485
H        0.69711567       2.61610005       0.39591245
H        2.11194059       4.04415894      -1.03656420
H        2.62402875       0.74967074      -3.78985065
H        1.22524337      -0.66554473      -2.35084253
H        6.65134325      -0.51659444      -4.01448393
H        8.50885311      -0.56205451      -5.68888763
H        7.40491747       3.37894202      -7.08605233
H        5.00692071       4.46333775      -5.51871486
C        9.13255577       1.35405669      -7.43933325
C       10.03111542       1.31753919      -8.24288352
Br      11.48401037       1.25849349      -9.54215634
C       -0.88167687      -0.88167687      -0.88167687
C       -1.10154506      -0.52969964      -2.21206614
C       -1.91210108      -1.33558903      -3.01603992
C       -2.49425605      -2.50097665      -2.49456583
C       -2.27965312      -2.83454622      -1.14982818
C       -1.46855061      -2.02747474      -0.34631801
C       -3.37886354      -3.30948206      -3.38276636
O       -4.03924379      -2.70097211      -4.22493310
C       -3.44249287      -4.74963843      -3.24252436
O       -2.48822260      -5.42360713      -2.52881594
C       -2.78913762      -6.74840626      -2.59420655
C       -2.06115719      -7.77222749      -1.99242530
C       -2.54299148      -9.07279897      -2.17926067
C       -3.69538809      -9.30786072      -2.93392983
C       -4.40786626      -8.25936099      -3.53227032
C       -3.93525229      -6.94705106      -3.35329527
C       -4.34096861      -5.65602864      -3.77760339
H       -0.65466859       0.36840723      -2.63104191
H       -2.09034676      -1.05055675      -4.05176022
H       -2.74793519      -3.70956071      -0.70605424
H       -1.30789131      -2.29728762       0.69463776
H       -1.16896462      -7.56700195      -1.41326618
H       -2.00494645      -9.90334401      -1.72739577
H       -5.30126471      -8.44919502      -4.11945210
H       -5.18866590      -5.40094608      -4.39936135
C       -4.16389754     -10.65896638      -3.10308179
C       -4.55627421     -11.79051737      -3.24474654
Br      -5.19071409     -13.62013962      -3.47380648
C       -0.88167687       0.88167687       0.88167687
C       -0.48966812       1.16496921       2.18867350
C       -1.29997796       1.96852169       2.99523039
C       -2.49739293       2.49993393       2.49247166
C       -2.88923774       2.19300230       1.18178747
C       -2.07776937       1.38886604       0.37570796
C       -3.34432467       3.32366045       3.40312683
O       -3.33953574       3.02753194       4.59808132
C       -4.13157002       4.42173301       2.88135263
O       -3.88706961       4.92264439       1.63093167
C       -4.75167471       5.95267040       1.42740533
C       -4.82756716       6.72654622       0.27169661
C       -5.79251508       7.74012757       0.26240847
C       -6.62459260       7.94663890       1.36594714
C       -6.52512665       7.15551011       2.51886081
C       -5.55973595       6.13325273       2.54260994
C       -5.14411640       5.15201962       3.47846462
H        0.43686039       0.76312274       2.59104093
H       -0.99532184       2.17785851       4.01948339
H       -3.82979945       2.55743428       0.77631642
H       -2.39116559       1.15915523      -0.63977964
H       -4.17064484       6.55000197      -0.57141405
H       -5.88625983       8.36943619      -0.62000979
H       -7.17320736       7.32288288       3.37382159
H       -5.53021747       4.98385405       4.47490181
C       -7.60823796       8.99733614       1.32037161
C       -8.43204095       9.87729507       1.28220211
Br      -9.76406070      11.30011425       1.22048525
C        0.88167687      -0.88167687       0.88167687
C        2.12204054      -1.30939904       0.41187126
C        2.92551195      -2.11963944       1.21857866
C        2.49542547      -2.49353143       2.50084162
C        1.23796041      -2.07124503       2.95482207
C        0.43485588      -1.26066035       2.14682713
C        3.37378627      -3.38725740       3.31006829
O        4.05008036      -4.21534774       2.69972090
C        3.41358644      -3.26809320       4.75297603
O        2.90569031      -2.15954986       5.37540550
C        3.10624479      -2.31371319       6.71179246
C        2.72786347      -1.40269822       7.69524830
C        3.02436482      -1.75346762       9.01721867
C        3.66697431      -2.95906291       9.31114143
C        4.04055575      -3.85717044       8.30177137
C        3.74923971      -3.51783048       6.96852844
C        3.95507890      -4.11893753       5.70058421
H        2.47013407      -1.02519360      -0.57802439
H        3.88892513      -2.46084919       0.84288942
H        0.86003251      -2.37597603       3.92754161
H       -0.53767259      -0.93783376       2.51037999
H        2.23239730      -0.47261949       7.44421596
H        2.74721478      -1.07083118       9.81764028
H        4.54180902      -4.79121956       8.53688324
H        4.43837911      -5.06301857       5.48757564
C        3.95406894      -3.28868318      10.68319360
C        4.19451069      -3.56474015      11.83228729
Br       4.58328467      -4.01110093      13.69027460
