185
Properties=species:S:1:pos:R:3 pbc="F F F"
C        0.00000000       0.00000000       0.00000000
C        0.88284482       0.88284482      -0.88284482
C        2.25770428       0.68144651      -0.89904537
C        3.08435926       1.47257234      -1.70282947
C        2.49012971       2.48029312      -2.48382925
N        3.03646955       3.40941763      -3.35312082
C        4.45285424       3.51709238      -3.68263024
C        5.22845577       4.57182482      -2.87506107
H        6.26331290       4.55582420      -3.23966270
O        4.73964849       5.89542723      -3.13819710
C        5.23945873       4.29836884      -1.35796597
N        6.12901334       5.25391150      -0.68708510
C        6.15558557       5.08133800       0.75874499
C        6.90357465       3.82457345       1.20780220
C        7.36977983       4.12200924       2.63276588
C        7.19970289       5.62666041       2.83467479
C        6.94902153       6.19266379       1.44342705
C        2.04435657       4.19511792      -3.91389629
C        2.11180091       5.24436588      -4.84804619
C        0.92276885       5.87360152      -5.22631806
C       -0.29355678       5.46237620      -4.69572240
Br      -1.88724349       6.33313975      -5.22829296
C       -0.36072392       4.41546319      -3.77344359
C        0.82997206       3.77023470      -3.37316142
C        1.10908502       2.69352450      -2.47690253
C        0.29255071       1.87856205      -1.66319471
H        2.70493213      -0.09863682      -0.28719116
H        4.15546424       1.29825073      -1.70902149
H        4.50980381       3.75015804      -4.75239473
H        4.90575044       2.52787947      -3.55471386
H        3.86518109       5.97790154      -2.71554464
H        5.58551457       3.27536620      -1.17860548
H        4.22767381       4.41198808      -0.95240074
H        5.84200943       6.20361179      -0.93458938
H        5.13532852       5.07843211       1.16587249
H        7.78038021       3.64282126       0.57255783
H        6.27580396       2.92857176       1.16385673
H        6.77779284       3.56669437       3.36788276
H        8.41564883       3.82203289       2.76041195
H        6.33188879       5.81550199       3.47785205
H        8.07252986       6.08097340       3.31313961
H        6.40158249       7.14011003       1.47790793
H        7.90579496       6.37048396       0.93589764
H        3.05760706       5.57529810      -5.26763279
H        0.96326971       6.69046878      -5.94352766
H       -1.31470337       4.09527988      -3.36522285
H       -0.78274216       2.02837193      -1.65183403
C       -0.88284482      -0.88284482      -0.88284482
C       -2.26390964      -0.83912720      -0.73515932
C       -3.09158965      -1.63301368      -1.53515774
C       -2.49041710      -2.48105420      -2.48278078
N       -3.03445197      -3.37260231      -3.39195372
C       -4.46068884      -3.60698030      -3.58490772
C       -5.02698544      -4.82043335      -2.82792287
H       -6.09286868      -4.88545073      -3.08048039
O       -4.43854093      -6.04565396      -3.28907792
C       -4.89264818      -4.70672527      -1.29642009
N       -5.59730629      -5.82118185      -0.65152180
C       -5.47616575      -5.80164772       0.79963489
C       -6.29266233      -4.69109065       1.46340710
C       -6.56023860      -5.18406300       2.88527841
C       -6.21513689      -6.67217132       2.89561971
C       -6.06832331      -7.06048483       1.43054987
C       -2.03768030      -3.97836156      -4.13732894
C       -2.10359273      -4.92730336      -5.17331689
C       -0.90740760      -5.37464439      -5.74063644
C        0.31302686      -4.88372305      -5.29384563
Br       1.91618506      -5.50774913      -6.08262515
C        0.37754910      -3.93590535      -4.26982660
C       -0.81940424      -3.47520303      -3.67876092
C       -1.10308792      -2.53480980      -2.64161434
C       -0.28671543      -1.71953950      -1.82805254
H       -2.71583231      -0.18194038       0.00428622
H       -4.16857771      -1.58239950      -1.41175925
H       -4.61524034      -3.73431280      -4.66280344
H       -4.99486264      -2.69425766      -3.29922348
H       -3.51772101      -6.07057575      -2.97033052
H       -5.31882983      -3.75367999      -0.96697643
H       -3.83489762      -4.74499854      -1.01216647
H       -5.24475958      -6.70155917      -1.03389185
H       -4.42179000      -5.72396622       1.09786807
H       -7.25022287      -4.54657516       0.94615439
H       -5.76902710      -3.72951724       1.45802535
H       -5.94815853      -4.64296238       3.61451646
H       -7.60986917      -5.02009562       3.15269503
H       -5.26483035      -6.82553073       3.42082235
H       -6.97652742      -7.26972291       3.40588667
H       -5.42645915      -7.93776101       1.30043558
H       -7.05352753      -7.29349005       1.00663630
H       -3.05225016      -5.31935833      -5.52892946
H       -0.94571036      -6.11307858      -6.53847721
H        1.33408568      -3.55237595      -3.92750909
H        0.79249255      -1.74598261      -1.94397374
C       -0.88284482       0.88284482       0.88284482
C       -0.75378143       2.26500989       0.81940484
C       -1.55422009       3.09260544       1.61293555
C       -2.48290274       2.49039327       2.48095606
N       -3.38753495       3.03425946       3.37721359
C       -3.59605904       4.46082964       3.59568818
C       -2.83095541       5.05263318       4.79175307
H       -3.09655052       6.11593063       4.84631864
O       -3.26855650       4.47434241       6.03037390
C       -1.29942193       4.93657408       4.65979753
N       -0.64946871       5.66397841       5.75656281
C        0.80277374       5.56130791       5.71964441
C        1.44145797       6.37172125       4.59008260
C        2.86595013       6.66401688       5.06095644
C        2.89997698       6.33853807       6.55312741
C        1.44207601       6.17793569       6.96239859
C       -4.11196103       2.03595798       4.00545178
C       -5.13640386       2.10089707       4.96691205
C       -5.68224229       0.90344214       5.43700400
C       -5.22591816      -0.31743834       4.95606199
Br      -5.98558770      -1.92234520       5.61094673
C       -4.21344591      -0.38112706       3.99586401
C       -3.64404761       0.81722754       3.51209304
C       -2.62290114       1.10195227       2.55465864
C       -1.80932466       0.28555794       1.73942486
H       -0.02883233       2.71780613       0.14684801
H       -1.44555793       4.17034183       1.54683670
H       -4.67415016       4.60312425       3.73508217
H       -3.32916262       4.98667764       2.67250352
H       -2.93751759       3.55811142       6.06299826
H       -0.98788304       5.35448563       3.69711758
H       -1.00091088       3.88316524       4.70798651
H       -1.01582325       5.31805833       6.64632902
H        1.11372333       4.50993938       5.65167210
H        0.90992590       7.32056639       4.44000315
H        1.43052046       5.83554871       3.63549074
H        3.59608334       6.05437376       4.51831404
H        3.11750234       7.71477657       4.87999553
H        3.43947690       5.39716366       6.71185198
H        3.40791807       7.11418026       7.13410146
H        1.33167266       5.54595782       7.84949943
H        1.00837247       7.16055257       7.18820117
H       -5.49929061       3.04993053       5.35131682
H       -6.47093084       0.94109704       6.18523828
H       -3.86363922      -1.33809839       3.62025853
H       -1.91079336      -0.79461724       1.78128768
C        0.88284482      -0.88284482       0.88284482
C        0.46180058      -2.16600382       1.21039176
C        1.25488010      -2.99347445       2.01140652
C        2.48086213      -2.49036727       2.48302269
N        3.45710139      -3.05637714       3.28552947
C        3.41907414      -4.41193240       3.82157032
C        2.88863518      -4.52573726       5.26096922
H        2.93594423      -5.58702568       5.53582988
O        3.74324668      -3.84112994       6.18889619
C        1.43311005      -4.04323559       5.41944790
N        0.95762825      -4.33534868       6.77703301
C       -0.40101301      -3.86674690       7.01244469
C       -1.46431642      -4.69550449       6.28915782
C       -2.74494349      -4.50288077       7.10108591
C       -2.32074114      -3.88172490       8.43070475
C       -0.80565835      -4.02727677       8.47663985
C        4.50878743      -2.17531114       3.46927222
C        5.71304606      -2.30747122       4.18369570
C        6.59569006      -1.22423517       4.20276321
C        6.28932552      -0.05168809       3.52352820
Br       7.50529927       1.39787606       3.56676601
C        5.09643349       0.07642415       2.80817352
C        4.18780712      -1.00430528       2.78125579
C        2.91618623      -1.20204455       2.16128126
C        2.10275329      -0.38614880       1.34540537
H       -0.49037142      -2.54138600       0.84247189
H        0.91465790      -3.99531724       2.25276132
H        4.44341229      -4.79923204       3.76971225
H        2.81861294      -5.02712940       3.14260144
H        3.62689000      -2.88365216       6.04808512
H        0.80229745      -4.55302771       4.68416109
H        1.37956391      -2.96166044       5.25083829
H        1.60638278      -3.92270227       7.45112555
H       -0.49704968      -2.80760848       6.73732933
H       -1.19616894      -5.76013965       6.28667293
H       -1.59364540      -4.38781366       5.24635073
H       -3.45075392      -3.84806307       6.57929531
H       -3.24444535      -5.46544943       7.25626568
H       -2.59567546      -2.82028799       8.44492620
H       -2.80683473      -4.36193948       9.28525889
H       -0.34054344      -3.27846817       9.12585986
H       -0.53853419      -5.02133392       8.85758155
H        5.96165712      -3.21890893       4.71997191
H        7.52743599      -1.31269698       4.75713319
H        4.86408363       0.99373382       2.27544956
H        2.43035828       0.61491600       1.08202152
