182
Properties=species:S:1:pos:R:3 pbc="F F F"
C        1.79123838       1.79123838      -1.79123838
C        1.22477068       2.84150915      -2.50879700
C        2.03316329       3.64846519      -3.31596360
C        3.41603637       3.40901988      -3.42605885
C        3.96422474       2.34900785      -2.67624685
C        3.15777023       1.54319833      -1.86806430
C        4.27191387       4.32990764      -4.30968760
H        3.57419670       4.65493317      -5.09172665
S        5.52091765       3.43830454      -5.23466599
C        6.74877337       4.63459422      -5.57359339
S        8.02732832       4.12845289      -6.55467956
N        6.64435712       5.90025132      -4.99950622
C        7.72842574       6.88289238      -5.11448650
C        5.38838257       6.45041168      -4.50692058
H        5.65816815       7.32558820      -3.89774262
C        4.46160340       7.05101710      -5.57078309
C        4.67709866       6.91819090      -6.95323053
C        3.81251415       7.51470846      -7.87708610
C        2.72198294       8.25449725      -7.43037793
C        2.48307897       8.40033351      -6.06761745
C        3.34637364       7.80168461      -5.14622405
N        4.73437687       5.51669916      -3.60141820
C        5.51813866       5.26612862      -2.39454970
H        0.15849251       3.04236054      -2.44697978
H        1.57495158       4.47132386      -3.86297724
H        5.03163238       2.14020350      -2.70990427
H        3.60799188       0.72933476      -1.30570928
H        7.75943556       7.50312362      -4.21315723
H        7.54772247       7.51471154      -5.98864143
H        8.70771429       6.40890943      -5.20591963
H        5.52265086       6.35705986      -7.34237669
H        4.00450540       7.39761782      -8.94096479
H        1.63427363       8.97837598      -5.71174649
H        3.14764000       7.92465610      -4.08205833
H        4.91154888       4.78381211      -1.62165327
H        5.85136952       6.20986116      -1.94619354
H        6.40590421       4.65018478      -2.57148935
C        1.83937691       8.87599491      -8.38345047
C        1.10019436       9.39649920      -9.18164871
Br      -0.09500130      10.23811061     -10.47226777
C       -1.79123838      -1.79123838      -1.79123838
C       -2.97293919      -2.32175810      -1.28037954
C       -3.77976838      -3.12909197      -2.08873173
C       -3.41029428      -3.42667320      -3.41414762
C       -2.21709111      -2.86317502      -3.90921330
C       -1.41106901      -2.05494621      -3.10301764
C       -4.33364204      -4.30308322      -4.27478385
H       -4.82076905      -4.95835420      -3.54173328
S       -3.43080117      -5.45829036      -5.30479665
C       -4.52233581      -5.81180294      -6.62282222
S       -4.00359365      -6.98518434      -7.72168278
N       -5.71509366      -5.09892937      -6.73009164
C       -6.58438146      -5.23688933      -7.90453382
C       -6.33269890      -4.40588690      -5.60712902
H       -7.09623758      -3.74388164      -6.04137975
C       -7.14945334      -5.28320642      -4.65074384
C       -7.15907862      -6.68768015      -4.70176131
C       -7.94866493      -7.43455377      -3.82109000
C       -8.74144863      -6.78634721      -2.87906229
C       -8.74947041      -5.39716780      -2.80439170
C       -7.95820725      -4.65279777      -3.68327728
N       -5.37277601      -3.53311501      -4.94660320
C       -4.89981753      -2.46070471      -5.81829474
H       -3.27657460      -2.11337199      -0.25788624
H       -4.70532506      -3.52805437      -1.67587325
H       -1.90215296      -3.04473148      -4.93485571
H       -0.49342285      -1.63894120      -3.51067186
H       -7.08686553      -4.28511641      -8.10373447
H       -7.33070001      -6.01186095      -7.70851448
H       -6.02376407      -5.49307907      -8.80570021
H       -6.56176120      -7.23120088      -5.42912534
H       -7.93862487      -8.52004806      -3.88441508
H       -9.36776513      -4.88432984      -2.07230112
H       -7.97473203      -3.56560126      -3.61402114
H       -4.39625516      -1.67678524      -5.24397386
H       -5.74336658      -1.95774892      -6.30630873
H       -4.21881907      -2.80548853      -6.60327074
C       -9.56105881      -7.55729734      -1.98046614
C      -10.24748234      -8.20296808      -1.22789186
Br     -11.35737112      -9.24696305      -0.01104291
C       -1.79123838       1.79123838       1.79123838
C       -1.20724859       2.72897346       2.63885477
C       -2.01564946       3.53603622       3.44590640
C       -3.41745159       3.40827567       3.42538784
C       -3.98128723       2.46184547       2.54634674
C       -3.17463336       1.65616812       1.73823138
C       -4.27057385       4.32652575       4.31440951
H       -3.61909067       4.52760475       5.17416110
S       -5.66094258       3.47516166       5.05778393
C       -6.81495912       4.74192633       5.40007552
S       -8.20902896       4.27149279       6.22993902
N       -6.56192317       6.03534247       4.94684903
C       -7.57079083       7.09527164       5.05974214
C       -5.22874877       6.51282306       4.60414300
H       -5.37520695       7.45333409       4.05295793
C       -4.35218839       6.94565384       5.78556137
C       -4.69542292       6.72297424       7.13012292
C       -3.86893258       7.16815176       8.16722436
C       -2.68902262       7.84454578       7.87328972
C       -2.32320161       8.07658034       6.55124796
C       -3.14879082       7.62898068       5.51651080
N       -4.57525405       5.60089986       3.67634031
C       -5.26982808       5.51473361       2.39425529
H       -0.12707393       2.84177468       2.67898422
H       -1.54250504       4.27068904       4.09605860
H       -5.06079409       2.34346832       2.47747774
H       -3.63781396       0.93097536       1.07424659
H       -7.47516779       7.78516660       4.21538202
H       -7.41645011       7.63816406       5.99646127
H       -8.58870135       6.70139465       5.03244735
H       -5.61296429       6.20752980       7.40159333
H       -4.16022387       6.98426096       9.19860318
H       -1.40395011       8.60591128       6.31453471
H       -2.85031376       7.81815586       4.48588481
H       -4.63913487       5.04471241       1.63316698
H       -5.48768952       6.51606928       2.00366543
H       -6.21540400       4.96524832       2.44692602
C       -1.84516846       8.31067590       8.94297793
C       -1.13844060       8.70105987       9.83884181
Br       0.00427858       9.33227773      11.28737793
C        1.79123838      -1.79123838       1.79123838
C        3.16594649      -1.83494505       1.57418529
C        3.97257607      -2.64272366       2.38229235
C        3.41461188      -3.42655334       3.40994987
C        2.02255971      -3.35026862       3.61665111
C        1.21587403      -2.54216632       2.81099251
C        4.33782648      -4.28680696       4.28687566
H        5.16769958      -4.53856448       3.61459246
S        3.63432221      -5.88957113       4.66999484
C        4.43652342      -6.37625852       6.14417904
S        4.07494446      -7.92669417       6.70882215
N        5.27788265      -5.47385867       6.79237335
C        5.84133994      -5.76956186       8.11490281
C        5.88927443      -4.33304300       6.12339740
H        6.27558690      -3.68341436       6.92249770
C        7.14541345      -4.63913609       5.29885406
C        7.59066306      -5.94182752       5.01602951
C        8.76228132      -6.15884387       4.28318352
C        9.50586441      -5.07544865       3.82554506
C        9.08729426      -3.77505676       4.08867890
C        7.91535991      -3.56016456       4.81875782
N        4.88625730      -3.54869503       5.41754189
C        3.90333260      -2.95510697       6.32037741
H        3.62022352      -1.24528843       0.78232088
H        5.04703128      -2.65769348       2.20452792
H        1.54859805      -3.91899078       4.41415133
H        0.14446762      -2.50802313       2.99054516
H        5.95126832      -4.84083712       8.68361096
H        6.82004149      -6.24124567       7.98978828
H        5.19527525      -6.42521356       8.70205454
H        7.04385268      -6.81431282       5.36392192
H        9.08470869      -7.17744349       4.08093583
H        9.66427032      -2.92424580       3.73587998
H        7.59974406      -2.53657286       5.01803750
H        3.32700338      -2.17170601       5.81830486
H        4.40111348      -2.44962958       7.15668116
H        3.20262806      -3.68346172       6.74148855
C       10.71696602      -5.30171995       3.08013632
C       11.73126361      -5.49122217       2.45585649
Br      13.37129704      -5.79763123       1.44644882
C       -0.00445707       0.01189536      -1.78238275
H       -0.66409135       0.67374010      -2.43557963
H        0.65740317      -0.63156657      -2.45157240
C       -0.90989263      -0.90692880      -0.91072765
C        0.90977584       0.90977584      -0.90977584
C       -0.00465871       1.77757030       0.00794375
H       -0.66225468       2.44313916      -0.64384735
H        0.64322798       2.43503045       0.67728295
C       -1.78241447       0.00034974      -0.00472694
H       -2.45427497      -0.65498947       0.64260836
H       -2.43311707       0.67328779      -0.65473579
C       -0.91132561       0.90220522       0.91563759
C       -0.01476271      -0.02253852       1.78660255
H       -0.67934791      -0.69751639       2.42135241
H        0.63392994       0.61504881       2.47327442
C        0.01484550      -1.77751727      -0.01636693
H        0.67870853      -2.42144646      -0.68295456
H       -0.62264859      -2.45592969       0.64226336
C        1.78714474       0.01002794       0.00389507
H        2.44202412       0.67113390       0.66197326
H        2.45385902      -0.65136977      -0.64189061
C        0.91606151      -0.90478549       0.90901405
