161
Properties=species:S:1:pos:R:3 pbc="F F F"
C        0.00000000       0.00000000       0.00000000
C        0.88133436       0.88133436      -0.88133436
C        0.31486666       1.93160513      -1.59889297
C        1.12325926       2.73856117      -2.40605958
C        2.50613234       2.49911585      -2.51615483
C        3.05432071       1.43910383      -1.76634283
C        2.24786621       0.63329431      -0.95816027
C        3.36200984       3.42000361      -3.39978358
H        2.66429268       3.74502915      -4.18182263
S        4.61101362       2.52840052      -4.32476196
C        5.83886934       3.72469019      -4.66368937
S        7.11742429       3.21854887      -5.64477553
N        5.73445310       4.99034730      -4.08960220
C        6.81852172       5.97298835      -4.20458247
C        4.47847855       5.54050766      -3.59701655
H        4.74826413       6.41568417      -2.98783860
C        3.55169938       6.14111308      -4.66087907
C        3.76719463       6.00828688      -6.04332650
C        2.90261012       6.60480443      -6.96718208
C        1.81207891       7.34459323      -6.52047391
C        1.57317494       7.49042948      -5.15771342
C        2.43646962       6.89178058      -4.23632002
N        3.82447284       4.60679514      -2.69151417
C        4.60823464       4.35622459      -1.48464567
H       -0.75141152       2.13245651      -1.53707576
H        0.66504755       3.56141984      -2.95307321
H        4.12172835       1.23029948      -1.80000025
H        2.69808785      -0.18056927      -0.39580525
H        6.84953153       6.59321959      -3.30325321
H        6.63781845       6.60480752      -5.07873740
H        7.79781027       5.49900541      -4.29601560
H        4.61274684       5.44715584      -6.43247266
H        3.09460138       6.48771380      -8.03106076
H        0.72436960       8.06847195      -4.80184247
H        2.23773598       7.01475208      -3.17215430
H        4.00164485       3.87390808      -0.71174924
H        4.94146550       5.29995714      -1.03628952
H        5.49600018       3.74028076      -1.66158532
C        0.92947289       7.96609089      -7.47354644
C        0.19029034       8.48659518      -8.27174469
Br      -1.00490533       9.32820659      -9.56236375
C       -0.88133436      -0.88133436      -0.88133436
C       -0.77762218      -2.26751957      -0.80022300
C       -1.58563073      -3.07413124      -1.60811804
C       -2.49915268      -2.50607004      -2.51618031
C       -2.59364561      -1.10072219      -2.56539957
C       -1.78808987      -0.29383825      -1.75739266
C       -3.38125047      -3.42758399      -3.37296258
H       -2.76349088      -4.32515221      -3.50250137
S       -3.57889495      -2.83347346      -5.05180768
C       -5.07309461      -3.55723613      -5.59691817
S       -5.48380413      -3.28438905      -7.21255551
N       -5.85742187      -4.26727743      -4.68970330
C       -7.19570412      -4.74956609      -5.05082233
C       -5.33233175      -4.83073270      -3.45293830
H       -6.20886173      -5.09822809      -2.84469708
C       -4.59485687      -6.16811734      -3.59071732
C       -4.25046754      -6.74159827      -4.82674221
C       -3.60389168      -7.98045037      -4.89025458
C       -3.29540540      -8.66370394      -3.71803671
C       -3.62229249      -8.11844411      -2.48058125
C       -4.26592854      -6.87967017      -2.41897151
N       -4.60762274      -3.82307245      -2.69208696
C       -5.46803088      -2.72694879      -2.25412524
H       -0.07463845      -2.73061953      -0.11286277
H       -1.49798952      -4.15657510      -1.52497599
H       -3.30219648      -0.61587435      -3.23395725
H       -1.87924632       0.78732320      -1.82140072
H       -7.84175138      -4.73689266      -4.16736030
H       -7.11701295      -5.77111636      -5.43323406
H       -7.67412128      -4.11729976      -5.80141024
H       -4.48274168      -6.24463069      -5.76500298
H       -3.35122447      -8.40185056      -5.86030091
H       -3.38599763      -8.64757782      -1.56110857
H       -4.51660456      -6.46484787      -1.44318992
H       -4.98148946      -2.12750796      -1.47830476
H       -6.37972140      -3.11439791      -1.78359284
H       -5.77128553      -2.05933986      -3.06724088
C       -2.63894468      -9.94352949      -3.78663604
C       -2.08915882     -11.01538339      -3.84408799
Br      -1.20020159     -12.74848050      -3.93698292
C       -0.88133436       0.88133436       0.88133436
C       -2.16577942       0.46190765       1.21767768
C       -2.97245890       1.27012660       2.02529450
C       -2.51065396       2.51337727       2.49737179
C       -1.20099597       2.90480978       2.15396161
C       -0.39347638       2.09728150       1.34856291
C       -3.42173371       3.36309619       3.39696714
H       -4.43224045       3.09580134       3.06310266
S       -3.32784215       5.11299313       3.02334082
C       -3.82413146       5.90130977       4.50180768
S       -3.96107761       7.58366747       4.43600361
N       -4.03417072       5.13405775       5.64617413
C       -4.28682802       5.75976034       6.94950418
C       -4.30571961       3.70313953       5.60714362
H       -4.17393343       3.34064052       6.63721296
C       -5.75352968       3.30833087       5.29183098
C       -6.73237998       4.22186183       4.86456620
C       -8.04610232       3.80761927       4.62087503
C       -8.39906617       2.47419580       4.80388409
C       -7.44990946       1.54773191       5.22367648
C       -6.13749237       1.96284252       5.46423534
N       -3.30786475       3.00885804       4.80605936
C       -1.96627742       3.10755661       5.37527087
H       -2.54863432      -0.49008821       0.85957464
H       -3.97104251       0.92225480       2.28624330
H       -0.79110089       3.84595001       2.51497718
H        0.61042954       2.42817316       1.09558022
H       -3.86512392       5.13652580       7.74435461
H       -5.36603142       5.85997529       7.09535666
H       -3.81676184       6.74150828       7.03456115
H       -6.49945504       5.27349880       4.71942151
H       -8.78374893       4.53631084       4.29331617
H       -7.71918042       0.50504504       5.37045857
H       -5.40468098       1.22675199       5.79320939
H       -1.28862488       2.37831287       4.92036444
H       -1.97891054       2.85613839       6.44266323
H       -1.52170593       4.10292902       5.27323131
C       -9.75453191       2.05245759       4.56212072
C      -10.88973446       1.69925185       4.35964389
Br     -12.72526098       1.12814804       4.03225600
C        0.88133436      -0.88133436       0.88133436
C        0.92895855      -0.66101380       2.25539240
C        1.73673353      -1.46912369       3.06202279
C        2.51666069      -2.50007528       2.50466705
C        2.43644137      -2.71000642       1.11331958
C        1.62833655      -1.90434433       0.30663991
C        3.37702839      -3.37684633       3.42792232
H        3.63247881      -2.70314882       4.25551682
S        4.97710978      -3.76563725       2.72142908
C        5.46214864      -5.23904055       3.52605971
S        7.01029785      -5.80838567       3.16206518
N        4.56023376      -5.88294269       4.37122615
C        4.85407423      -7.20480831       4.93721000
C        3.42257336      -5.20966034       4.98376906
H        2.77193715      -6.00620753       5.37364222
C        3.73378250      -4.38279045       6.23711858
C        5.03825695      -4.10208142       6.67846964
C        5.25995658      -3.36689660       7.84774345
C        4.17952270      -2.90476717       8.59285618
C        2.87746183      -3.16572573       8.17813029
C        2.65789235      -3.89814951       7.00852836
N        2.63749423      -4.50434141       3.98094651
C        2.03927224      -5.40812412       3.00170855
H        0.34236886       0.13341336       2.70916525
H        1.75478530      -1.28875825       4.13599706
H        3.00203441      -3.51006617       0.63992750
H        1.59111464      -2.08644328      -0.76423409
H        3.92422898      -7.77095640       5.05081895
H        5.32847216      -7.07845212       5.91443908
H        5.50668920      -7.79515756       4.29098451
H        5.90853621      -4.45346290       6.13037623
H        6.27984063      -3.16636615       8.16716916
H        2.02894309      -2.80941706       8.75632388
H        1.63304032      -4.09568296       6.69591908
H        1.25569015      -4.90554129       2.42607074
H        1.53296948      -6.24195569       3.50278698
H        2.76486309      -5.83274700       2.30025617
C        4.41060529      -2.15694549       9.80155944
C        4.60413696      -1.53064483      10.81384842
Br       4.91706130      -0.51796963      12.45063408
