174
Properties=species:S:1:pos:R:3 pbc="F F F"
C        1.79127367       1.79127367      -1.79127367
C        2.51962194       2.83530912      -1.22662589
C        3.33019965       3.63927020      -2.03804764
C        3.40847651       3.41079504      -3.41732693
C        2.67569960       2.35146700      -3.96517287
C        1.86787577       1.54401102      -3.15718396
N        4.26168247       4.24323509      -4.17789406
C        4.32909744       4.29006702      -5.56080430
O        3.51732835       3.77109256      -6.32174152
C        5.50870466       5.07871985      -6.10864467
N        5.06599503       6.26118596      -6.87924142
C        5.72775259       6.51997969      -8.12911761
C        6.95923576       7.18707195      -8.12673133
C        7.65585351       7.38993522      -9.32044324
C        7.13907921       6.90909494     -10.52193638
C        5.92273882       6.22722905     -10.53345215
C        5.21783027       6.03071775      -9.34169845
S        4.42612466       7.56623563      -6.02214619
O        4.86643568       7.43853490      -4.64639710
O        4.63458097       8.79420715      -6.76312692
C        2.68132301       7.21928954      -6.05876267
H        2.46437169       3.03129354      -0.15891759
H        3.88903163       4.44797142      -1.57375552
H        2.72070214       2.11038743      -5.02309245
H        1.31142741       0.72694905      -3.60960959
H        4.80041676       4.93484831      -3.66389663
H        6.07196199       4.38693220      -6.74743703
H        6.19952607       5.37594986      -5.31209174
H        7.37643140       7.56948955      -7.19858255
H        8.60108402       7.92755689      -9.31257262
H        7.68099111       7.06787099     -11.45139889
H        5.53016744       5.85402437     -11.47639416
H        2.36389593       7.06092630      -7.08929152
H        2.16527474       8.09073483      -5.64758396
H        2.46933563       6.35012442      -5.43649062
C        3.96354237       5.32807766      -9.42329986
C        2.91307626       4.73961659      -9.49164104
Br       1.21456141       3.78812480      -9.60214295
C       -1.79127367      -1.79127367      -1.79127367
C       -1.68003931      -1.72373959      -3.17777805
C       -2.48771755      -2.53687811      -3.98292184
C       -3.41663233      -3.41249790      -3.40746825
C       -3.50793659      -3.47240850      -2.01199438
C       -2.70018172      -2.66437876      -1.20451027
N       -4.18635362      -4.22249599      -4.27396202
C       -5.26961889      -5.00392511      -3.90642476
O       -5.84301898      -4.94470891      -2.82243456
C       -5.74579644      -5.96826353      -4.98200921
N       -7.12423744      -5.66056388      -5.42162109
C       -8.02839022      -6.76691877      -5.58154090
C       -7.99314988      -7.51455470      -6.76533447
C       -8.81227981      -8.63572760      -6.91822456
C       -9.65616755      -9.03157790      -5.88236508
C       -9.68576775      -8.30537696      -4.69227531
C       -8.87422247      -7.17676246      -4.53926153
S       -7.36075238      -4.28456422      -6.36918987
O       -6.07791511      -3.92908471      -6.94436786
O       -8.53320003      -4.45476933      -7.20394568
C       -7.75833791      -3.05268135      -5.14835594
H       -0.96954187      -1.04400067      -3.64104029
H       -2.38224175      -2.46592010      -5.06259671
H       -4.18980402      -4.15324278      -1.51113521
H       -2.79113881      -2.73347807      -0.12336917
H       -3.98550703      -4.14640159      -5.26725307
H       -5.69306846      -6.97177846      -4.54148430
H       -5.06385418      -5.98451877      -5.83919472
H       -7.34142136      -7.21931187      -7.58377028
H       -8.79427977      -9.19818215      -7.84875161
H      -10.29456784      -9.90391000      -6.00178315
H      -10.34615805      -8.62486434      -3.88956358
H       -8.57871328      -3.40952168      -4.52587879
H       -8.07033432      -2.15122053      -5.68203868
H       -6.87264505      -2.82930777      -4.55399784
C       -8.95944509      -6.46524476      -3.29023003
C       -9.03081904      -5.86934869      -2.24416616
Br      -9.14622467      -4.90583515      -0.55276934
C       -1.79127367       1.79127367       1.79127367
C       -3.04800217       2.19031113       1.34324365
C       -3.85529161       2.99573557       2.15649031
C       -3.40691647       3.41448167       3.41520035
C       -2.14444047       2.99623697       3.85166203
C       -1.33683449       2.18864538       3.04359088
N       -4.27805976       4.20776374       4.19698812
C       -3.94591715       4.86194170       5.37210992
O       -2.80220005       5.01745620       5.79050618
C       -5.13336970       5.42409076       6.13860871
N       -5.07704361       6.89939234       6.22998646
C       -5.37937829       7.49373583       7.50373578
C       -6.71762689       7.68607347       7.86933869
C       -7.04012904       8.19745538       9.12864755
C       -6.03030537       8.49970145      10.04010371
C       -4.69524690       8.29469346       9.69347966
C       -4.36813774       7.79198843       8.43012029
S       -5.39458553       7.78847162       4.83144933
O       -6.11264678       6.91929673       3.91942417
O       -5.91322539       9.09517998       5.18350967
C       -3.76332293       8.03216606       4.16388623
H       -3.40834642       1.88058400       0.36565240
H       -4.83225415       3.29405002       1.78445440
H       -1.75771248       3.26674569       4.82972384
H       -0.36154822       1.87717433       3.40926349
H       -5.19917233       4.39116618       3.80882319
H       -5.09798324       4.97104784       7.13730014
H       -6.08455408       5.10240031       5.70061328
H       -7.51781319       7.45644146       7.17024886
H       -8.08084904       8.36374310       9.39662138
H       -6.28137624       8.89871410      11.02017065
H       -3.91552422       8.53153036      10.41353138
H       -3.11919560       8.46684331       4.92807484
H       -3.85323263       8.72616256       3.32419834
H       -3.37126650       7.08147544       3.80320872
C       -2.97097977       7.61301654       8.13092358
C       -1.80085997       7.46312758       7.88034634
Br       0.09112478       7.22076981       7.47518413
C        1.79127367      -1.79127367       1.79127367
C        2.03271003      -1.43354018       3.11530674
C        2.83872706      -2.24690001       3.92189043
C        3.41521825      -3.41446201       3.40691822
C        3.15412717      -3.76186402       2.07634828
C        2.34649044      -2.95379561       1.26878470
N        4.20052283      -4.20388399       4.27840481
C        4.99208164      -5.27906771       3.90881942
O        5.28759193      -5.56946412       2.75310640
C        5.51887364      -6.10432334       5.07287220
N        6.99528684      -6.05938461       5.15175096
C        7.68112866      -7.29902614       5.39669509
C        7.78919845      -7.77403686       6.70980373
C        8.38961706      -9.00862880       6.96798611
C        8.86650786      -9.78786177       5.91574090
C        8.74743224      -9.33309245       4.60289532
C        8.15563004      -8.09327396       4.34134246
S        7.71336791      -4.62522492       5.67591364
O        6.70009783      -3.86717833       6.38409153
O        8.99717203      -4.90923424       6.28550878
C        8.03418943      -3.78405028       4.14113550
H        1.59926739      -0.52654557       3.52876987
H        3.01232916      -1.94631217       4.95211724
H        3.55106079      -4.67022971       1.63289151
H        2.15908135      -3.24939718       0.23950752
H        4.26356539      -3.89203280       5.24356351
H        5.16950166      -7.13093954       4.90589002
H        5.07369675      -5.79051540       6.02335553
H        7.42333307      -7.17865159       7.54251885
H        8.48864618      -9.36035332       7.99221401
H        9.33479804     -10.74860999       6.11685296
H        9.12066487      -9.95060436       3.78931674
H        8.59587547      -4.44099807       3.47724021
H        8.63302178      -2.89910060       4.37147115
H        7.09134383      -3.47235805       3.69224879
C        8.07243173      -7.67721827       2.96526989
C        8.00275314      -7.32877163       1.81280912
Br       7.89008875      -6.76536289      -0.05062248
C       -0.00445707       0.01189536      -1.78238275
H       -0.66409135       0.67374010      -2.43557963
H        0.65740317      -0.63156657      -2.45157240
C       -0.90989263      -0.90692880      -0.91072765
C        0.90977584       0.90977584      -0.90977584
C       -0.00465871       1.77757030       0.00794375
H       -0.66225468       2.44313916      -0.64384735
H        0.64322798       2.43503045       0.67728295
C       -1.78241447       0.00034974      -0.00472694
H       -2.45427497      -0.65498947       0.64260836
H       -2.43311707       0.67328779      -0.65473579
C       -0.91132561       0.90220522       0.91563759
C       -0.01476271      -0.02253852       1.78660255
H       -0.67934791      -0.69751639       2.42135241
H        0.63392994       0.61504881       2.47327442
C        0.01484550      -1.77751727      -0.01636693
H        0.67870853      -2.42144646      -0.68295456
H       -0.62264859      -2.45592969       0.64226336
C        1.78714474       0.01002794       0.00389507
H        2.44202412       0.67113390       0.66197326
H        2.45385902      -0.65136977      -0.64189061
C        0.91606151      -0.90478549       0.90901405
