165
Properties=species:S:1:pos:R:3 pbc="F F F"
C        0.00000000       0.00000000       0.00000000
N        0.74863510       5.78551047      -1.28807384
C        1.83688316       5.48216218      -1.06780132
C        3.16621721       5.11161136      -0.79873054
C        4.16611126       6.03170469      -0.86039979
S        3.78117175       7.67222818      -1.32044814
C        5.15477945       8.58188833      -0.63752823
N        6.36790938       7.91449324      -1.04710737
C        6.57439016       6.64371965      -0.36092891
N        5.48726141       5.68855250      -0.56176087
C        5.85728603       4.37253955      -0.27317712
O        6.93749302       4.06214680       0.22882784
C        4.90633794       3.30743892      -0.73991860
C        3.46037119       3.67317329      -0.43260987
H        3.32310422       3.60547191       0.65709021
C        2.54058278       2.64471875      -1.08993470
C        2.48422331       2.49192521      -2.48758233
C        1.64033972       1.54301145      -3.06899768
C        0.83796366       0.73578634      -2.26611413
C        0.88191235       0.88191235      -0.88191235
C        1.72392256       1.82695899      -0.29191663
C        7.53253787       8.70536357      -1.07637146
C        7.72527626       9.83951828      -0.27115299
C        8.89429598      10.60334729      -0.36321851
C        9.88962446      10.24017505      -1.26417736
Br      11.46321438      11.27824131      -1.39598089
C        9.72840899       9.11880666      -2.07067202
C        8.55809280       8.36020574      -1.97294403
H        5.06116451       8.64505902       0.45331880
H        5.08789117       9.59651192      -1.04628596
H        6.68615515       6.79596320       0.72194469
H        7.50100557       6.17469342      -0.71819358
H        5.08984691       3.16969208      -1.81319182
H        5.16569738       2.36240421      -0.24560049
H        3.09103066       3.11433253      -3.14349589
H        1.60472086       1.43792668      -4.15090655
H        0.18142116       0.00239297      -2.72737414
H        1.73892821       1.92454624       0.79063624
H        6.97634555      10.15167633       0.45132203
H        9.01317511      11.47790342       0.27026629
H       10.49612739       8.83072184      -2.78415280
H        8.43398971       7.50136135      -2.62942091
N       -1.29829320      -0.73952893      -5.78439727
C       -1.07520203      -1.82793986      -5.48370477
C       -0.80268815      -3.15747286      -5.11639809
C       -0.86419931      -4.15562454      -6.03839188
S       -1.32835457      -3.76829775      -7.67719575
C       -0.64450160      -5.13867164      -8.59102277
N       -1.05026780      -6.35397940      -7.92526278
C       -0.36109514      -6.56164046      -6.65630312
N       -0.56218960      -5.47685818      -5.69852699
C       -0.27018700      -5.84896089      -4.38385481
O        0.23463348      -6.92877331      -4.07667214
C       -0.73669100      -4.90112097      -3.31588349
C       -0.43305416      -3.45379583      -3.67930436
H        0.65650083      -3.31445515      -3.61353160
C       -1.09015199      -2.53742801      -2.64765623
C       -2.48759795      -2.48421453      -2.49191838
C       -3.06879430      -1.64343608      -1.54011847
C       -2.26590090      -0.84106881      -0.73289441
C       -0.88191235      -0.88191235      -0.88191235
C       -0.29213162      -1.72080785      -1.82985873
C       -1.07877807      -7.51706079      -8.71843404
C       -0.27547416      -7.70586739      -9.85460598
C       -0.36672183      -8.87352220     -10.62061774
C       -1.26492420      -9.87141046     -10.25764221
Br      -1.39564689     -11.44315906     -11.29863064
C       -2.06946639      -9.71410335      -9.13431792
C       -1.97256951      -8.54513000      -8.37354306
H        0.44602316      -5.04271545      -8.65621244
H       -1.05545214      -5.07055830      -9.60467861
H        0.72169140      -6.67089913      -6.81096593
H       -0.71552990      -7.48992697      -6.18843570
H       -1.80930862      -5.08708620      -3.17633599
H       -0.23993185      -5.16139012      -2.37238011
H       -3.14354297      -3.09108994      -3.11422618
H       -4.15055760      -1.61022576      -1.43277072
H       -2.72700036      -0.18695036       0.00276246
H        0.79024916      -1.73341892      -1.92966845
H        0.44484765      -6.95484140     -10.16670609
H        0.26522634      -8.98934409     -11.49669449
H       -2.78080480     -10.48384994      -8.84634729
H       -2.62755214      -8.42409900      -7.51312083
N       -1.37351798       5.77506565       0.67363577
C       -2.42848675       5.31583004       0.64252987
C       -3.71716894       4.75485727       0.60453290
C       -4.81890568       5.54781126       0.69149880
S       -4.60975795       7.27013824       0.89395188
C       -6.16702014       7.90595532       0.30122055
N       -7.21922472       7.16000477       0.95028049
C       -7.33071214       5.79172337       0.45660322
N       -6.10684672       5.01071326       0.62001480
C       -6.32515660       3.63273690       0.54510919
O       -7.40511716       3.12896243       0.23673239
C       -5.18817759       2.76367736       1.00184050
C       -3.85343355       3.25500690       0.45771389
H       -3.84017041       3.05572033      -0.62440483
C       -2.72920354       2.44433217       1.10170051
C       -2.48487422       2.49225626       2.48660037
C       -1.45529427       1.74027286       3.05678171
C       -0.65231521       0.93305943       2.25448948
C       -0.88191235       0.88191235       0.88191235
C       -1.91015206       1.62914358       0.30350255
C       -8.46913829       7.80166116       1.04347345
C       -8.91073850       8.78340297       0.14180607
C      -10.15371847       9.40654254       0.30060075
C      -10.97436443       9.05318787       1.36642457
Br     -12.64791866       9.90278832       1.58672961
C      -10.56535698       8.08040420       2.27212648
C       -9.32249874       7.46178564       2.10695819
H       -6.21473707       7.82994631      -0.79177865
H       -6.19105752       8.96760767       0.57202385
H       -7.59160988       5.77970238      -0.61113860
H       -8.13464962       5.26809521       0.99114774
H       -5.22075022       2.75314726       2.09883333
H       -5.37320265       1.73559878       0.66490066
H       -3.08791542       3.12112676       3.13981690
H       -1.27584165       1.78937873       4.12833371
H        0.14910534       0.35401795       2.70627566
H       -2.06838726       1.57505511      -0.77060415
H       -8.30392735       9.08142210      -0.70864961
H      -10.46650624      10.16542496      -0.41111896
H      -11.19501885       7.80256553       3.11341766
H       -9.00396240       6.72212827       2.83868131
N        2.09900248      -0.13137929       5.59183764
C        1.68187625      -1.20057678       5.50439363
C        1.17234160      -2.50663987       5.39757763
C        1.24296493      -3.36430168       6.45094913
S        2.01438076      -2.83384186       7.92562545
C        1.30382839      -3.93616693       9.13420069
N        1.42476711      -5.28129268       8.62345019
C        0.51797667      -5.54871750       7.51234456
N        0.71018172      -4.65370068       6.37369237
C        0.16135914      -5.15218093       5.18946262
O       -0.53091825      -6.16844652       5.13328371
C        0.57618935      -4.44902721       3.92847889
C        0.53840906      -2.93549740       4.09224789
H       -0.51758088      -2.63275490       4.15631190
C        1.14098107      -2.28880228       2.84545288
C        2.48876290      -2.48369382       2.49127414
C        3.01958013      -1.88757113       1.34519758
C        2.21591561      -1.08579125       0.53815726
C        0.88191235      -0.88191235       0.88191235
C        0.34234604      -1.47534424       2.02510791
C        1.41954345      -6.31262601       9.58210344
C        0.79165892      -6.21033482      10.83395380
C        0.84272737      -7.26001243      11.75812197
C        1.52377096      -8.43018070      11.44002521
Br       1.60182235      -9.84302915      12.69258508
C        2.15057736      -8.56167342      10.20563689
C        2.09501567      -7.50907162       9.28715528
H        0.26200342      -3.65753545       9.33336586
H        1.87826966      -3.79557609      10.05684330
H       -0.53026285      -5.45947787       7.83095865
H        0.66039193      -6.57771050       7.15579013
H        1.57606823      -4.82301619       3.67364639
H       -0.09738466      -4.75383907       3.11724767
H        3.14607562      -3.09634561       3.10643785
H        4.06392353      -2.04440845       1.08522211
H        2.63839619      -0.62278417      -0.34999210
H       -0.70096511      -1.29932192       2.27448142
H        0.24206201      -5.31711491      11.11752293
H        0.35044690      -7.15003330      12.72033204
H        2.69269579      -9.46839810       9.94990815
H        2.61304971      -7.61550816       8.33621410
