157
Properties=species:S:1:pos:R:3 pbc="F F F"
C        0.00000000       0.00000000       0.00000000
C        0.88138054       0.88138054      -0.88138054
C        1.88617845       0.30435977      -1.65160075
C        2.68308435       1.11399009      -2.46628698
C        2.48049580       2.50092642      -2.51799655
C        1.47660769       3.06602404      -1.72973810
C        0.67537744       2.25788298      -0.91422819
N        3.31236967       3.23681856      -3.38655007
C        3.26292227       4.59402609      -3.65855125
O        2.47893086       5.41119038      -3.19382143
C        4.24873172       5.05504164      -4.68162821
C        3.87467750       6.07905834      -5.55727474
C        4.74111560       6.48395092      -6.57939586
C        5.99470352       5.87870390      -6.73489514
C        6.38232487       4.89195805      -5.82573462
C        5.51942143       4.48322553      -4.80129686
N        6.78858906       6.29839346      -7.82352812
C        8.03770669       5.81719012      -8.17723279
O        8.70862302       4.98390075      -7.58470185
C        8.59617430       6.42877169      -9.40694506
C        8.76314401       7.82266915      -9.43655657
C        9.32391597       8.43695599     -10.55714374
C        9.72587288       7.66505596     -11.64591266
C        9.56224361       6.27844817     -11.62074194
C        8.99624011       5.65442419     -10.50326299
Br       8.75423733       3.77313370     -10.58829337
H        2.05564417      -0.76881074      -1.63032112
H        3.45972072       0.64156666      -3.06257688
H        1.28590708       4.13478630      -1.73012300
H       -0.10625747       2.71758916      -0.31508024
H        3.96261316       2.68383281      -3.92929827
H        2.89862182       6.55084510      -5.45832886
H        4.41215331       7.27025272      -7.25399217
H        7.35329107       4.40953080      -5.88834349
H        5.86858207       3.72677156      -4.10375142
H        6.37200413       6.98875517      -8.43625138
H        8.48573749       8.43125023      -8.57855679
H        9.46270854       9.51575247     -10.57609920
H       10.17354220       8.14161878     -12.51548631
H        9.88160470       5.69142103     -12.47939989
C       -0.88138054      -0.88138054      -0.88138054
C       -2.24700537      -0.62899883      -0.96613477
C       -3.04827623      -1.43131454      -1.78377065
C       -2.49159785      -2.48653277      -2.52128815
C       -1.12201602      -2.73466900      -2.41568481
C       -0.31630119      -1.93186862      -1.59931881
N       -3.36864705      -3.22705710      -3.34003415
C       -3.04993043      -4.26218101      -4.20338817
O       -1.93811309      -4.72652660      -4.41930298
C       -4.20807810      -4.79684266      -4.98048082
C       -3.99175454      -5.22547241      -6.29378362
C       -5.06596199      -5.65876459      -7.07973579
C       -6.36749583      -5.67838270      -6.56242403
C       -6.56884343      -5.29713150      -5.23404260
C       -5.49767732      -4.86292077      -4.44334572
N       -7.40689190      -6.07122627      -7.43239245
C       -8.75860264      -6.13417685      -7.13935011
O       -9.29690985      -5.91746691      -6.06284886
C       -9.60829126      -6.53855392      -8.28504588
C       -9.34937909      -7.77513641      -8.89785423
C      -10.15030033      -8.21512825      -9.95258711
C      -11.21368188      -7.42938597     -10.39377364
C      -11.47526899      -6.19913034      -9.78703439
C      -10.67426300      -5.74766042      -8.73200387
Br     -11.06689987      -4.03408963      -8.01467490
H       -2.69697027       0.18722979      -0.40741408
H       -4.11206771      -1.21379218      -1.83800436
H       -0.64599244      -3.54367378      -2.96115017
H        0.74922594      -2.13728571      -1.53835216
H       -4.32579597      -2.90001965      -3.34992863
H       -2.98832736      -5.20409878      -6.71536964
H       -4.86586572      -5.96814805      -8.10238444
H       -7.55453531      -5.31800704      -4.77862301
H       -5.69538653      -4.59459642      -3.40912210
H       -7.13340874      -6.27839183      -8.38521011
H       -8.54430463      -8.41257455      -8.53866535
H       -9.95612934      -9.17771944     -10.42071143
H      -11.84572425      -7.77643699     -11.20848605
H      -12.30945146      -5.59875817     -10.14421598
C       -0.88138054       0.88138054       0.88138054
C       -0.73282155       0.84503408       2.26428334
C       -1.53392634       1.66265668       3.06677841
C       -2.48437683       2.52071063       2.49433131
C       -2.62993561       2.53628450       1.10614972
C       -1.82790220       1.72021293       0.29937349
N       -3.22999721       3.32894528       3.37679581
C       -4.17012730       4.29297876       3.05239356
O       -4.52744664       4.62639150       1.93010453
C       -4.73651275       5.02274372       4.22614511
C       -5.04873587       6.37831838       4.08395632
C       -5.50702267       7.11501074       5.18242897
C       -5.66808972       6.50648726       6.43372559
C       -5.40288557       5.14079217       6.55633979
C       -4.94427674       4.39908611       5.46058097
N       -6.07721315       7.32604802       7.50724945
C       -6.26883649       6.94022475       8.82306837
O       -6.17545221       5.81320237       9.28857103
C       -6.65404379       8.04877245       9.72907482
C       -7.81764603       8.77535000       9.42937371
C       -8.24107766       9.79989219      10.27704585
C       -7.51202799      10.09772449      11.42708901
C       -6.35448124       9.37748642      11.72946607
C       -5.91965428       8.35174199      10.88253102
Br      -4.30019886       7.47349084      11.34197470
H        0.00169370       0.19158159       2.72726667
H       -1.39827058       1.62096155       4.14463211
H       -3.35617356       3.17790377       0.61673906
H       -1.95188163       1.75438008      -0.77984979
H       -2.98025658       3.24231570       4.35317196
H       -4.91667232       6.86959391       3.12152955
H       -5.72338939       8.17096707       5.04204175
H       -5.53553469       4.61714832       7.49848236
H       -4.76938973       3.33506316       5.59465217
H       -6.19126994       8.30986017       7.29588057
H       -8.41376531       8.52822513       8.55355408
H       -9.14810062      10.35608729      10.05037230
H       -7.84730904      10.88870267      12.09463558
H       -5.79767174       9.62341990      12.63133399
C        0.88138054      -0.88138054       0.88138054
C        0.49047099      -2.18607322       1.16559477
C        1.30657352      -2.99340828       1.96337961
C        2.51580725      -2.50447437       2.47913715
C        2.88775675      -1.18935243       2.19526065
C        2.07378249      -0.37872271       1.39498341
N        3.28852153      -3.39568248       3.25153429
C        4.53681136      -3.17072794       3.80796032
O        5.20661408      -2.14928193       3.72804666
C        5.11728260      -4.34902518       4.51909379
C        6.49947920      -4.55213271       4.45939867
C        7.07105933      -5.68716679       5.04623625
C        6.27212865      -6.62865791       5.70751600
C        4.89904373      -6.39374256       5.80723124
C        4.32210571      -5.25979715       5.22204096
N        6.91146370      -7.77647448       6.22257245
C        6.31352673      -8.83749057       6.88111230
O        5.13554419      -8.95297729       7.18870414
C        7.25148878      -9.92187917       7.25852310
C        8.34092160      -9.59824249       8.08320564
C        9.22563835     -10.59477818       8.49759915
C        9.02352269     -11.91487076       8.09844804
C        7.94117297     -12.24151502       7.27874574
C        7.05176599     -11.24788025       6.85428105
Br       5.64922771     -11.77732631       5.68911039
H       -0.43973810      -2.58590325       0.77098940
H        0.98355921      -4.01079860       2.16950644
H        3.81049717      -0.76335602       2.57696319
H        2.38663497       0.63954844       1.17932540
H        2.91267413      -4.33136211       3.33170800
H        7.13306231      -3.83679147       3.93794199
H        8.14642250      -5.82399047       4.96598524
H        4.24021771      -7.08046436       6.33048330
H        3.25310227      -5.10532372       5.34067906
H        7.90539538      -7.84905426       6.04256104
H        8.48825462      -8.57759288       8.42969701
H       10.06384969     -10.34589810       9.14481242
H        9.70609110     -12.69449211       8.43006407
H        7.79860407     -13.27706452       6.97675704
