178
Properties=species:S:1:pos:R:3 pbc="F F F"
C        1.79128457       1.79128457      -1.79128457
C        2.79608247       1.21426379      -2.56150478
C        3.59298838       2.02389411      -3.37619101
C        3.39039982       3.41083045      -3.42790057
C        2.38651172       3.97592807      -2.63964212
C        1.58528147       3.16778701      -1.82413221
N        4.22227369       4.14672259      -4.29645409
C        4.17282630       5.50393012      -4.56845527
O        3.38883488       6.32109441      -4.10372546
C        5.15863574       5.96494567      -5.59153224
C        4.78458152       6.98896237      -6.46717876
C        5.65101962       7.39385494      -7.48929988
C        6.90460755       6.78860792      -7.64479917
C        7.29222890       5.80186207      -6.73563864
C        6.42932546       5.39312955      -5.71120088
N        7.69849308       7.20829748      -8.73343214
C        8.94761072       6.72709415      -9.08713682
O        9.61852704       5.89380478      -8.49460587
C        9.50607833       7.33867572     -10.31684908
C        9.67304803       8.73257318     -10.34646059
C       10.23381999       9.34686001     -11.46704776
C       10.63577690       8.57495998     -12.55581668
C       10.47214764       7.18835219     -12.53064596
C        9.90614413       6.56432822     -11.41316701
Br       9.66414135       4.68303773     -11.49819740
H        2.96554820       0.14109329      -2.54022515
H        4.36962474       1.55147068      -3.97248090
H        2.19581111       5.04469033      -2.64002702
H        0.80364655       3.62749319      -1.22498426
H        4.87251719       3.59373683      -4.83920229
H        3.80852584       7.46074912      -6.36823289
H        5.32205734       8.18015674      -8.16389620
H        8.26319510       5.31943483      -6.79824752
H        6.77848610       4.63667559      -5.01365544
H        7.28190815       7.89865920      -9.34615540
H        9.39564152       9.34115426      -9.48846082
H       10.37261256      10.42565650     -11.48600322
H       11.08344622       9.05152281     -13.42539033
H       10.79150872       6.60132506     -13.38930391
C       -1.79128457      -1.79128457      -1.79128457
C       -1.85412763      -3.16122512      -1.55649829
C       -2.67177478      -3.96270589      -2.35859282
C       -3.43111735      -3.40197669      -3.39603681
C       -3.34742435      -2.02785180      -3.62680575
C       -2.53110021      -1.22195181      -2.82414867
N       -4.24800532      -4.28007137      -4.13737368
C       -5.12967276      -3.95925379      -5.15628514
O       -5.36691729      -2.84432722      -5.60241023
C       -5.89830130      -5.12060469      -5.69620766
C       -7.22014972      -4.91651016      -6.10406278
C       -7.99738205      -5.99542648      -6.54136592
C       -7.46285914      -7.28937359      -6.58578190
C       -6.12678566      -7.47764876      -6.22529519
C       -5.34475585      -6.40172067      -5.78717937
N       -8.32400860      -8.33518122      -6.98103288
C       -8.01362923      -9.68178072      -7.06643173
O       -6.92709152     -10.20817915      -6.87166702
C       -9.15317466     -10.54153450      -7.46689398
C       -9.78629282     -10.27436032      -8.69142867
C      -10.83603822     -11.08362967      -9.12805987
C      -11.25202818     -12.16346408      -8.35106130
C      -10.62502848     -12.43331035      -7.13280696
C       -9.57482952     -11.62410718      -6.68470266
Br      -8.82887509     -12.02999165      -4.98650974
H       -1.27826122      -3.61448082      -0.75412460
H       -2.70865596      -5.02998039      -2.15493996
H       -3.91029088      -1.54845835      -4.42177923
H       -2.48734508      -0.15301327      -3.01576565
H       -4.24049643      -5.24159495      -3.82336494
H       -7.65491505      -3.91932795      -6.06326485
H       -9.02677862      -5.80518787      -6.83414379
H       -5.65842568      -8.45664253      -6.26580923
H       -4.30438071      -6.58885976      -5.53557665
H       -9.28317887      -8.07199372      -7.17155016
H       -9.44676723      -9.45591028      -9.32257907
H      -11.31987436     -10.88290407     -10.08149386
H      -12.06280574     -12.80185531      -8.69569831
H      -10.96266146     -13.28033502      -6.53914122
C       -1.79128457       1.79128457       1.79128457
C       -1.74267899       3.17499350       1.65417855
C       -2.56028940       3.97762169       2.45516240
C       -3.43053267       3.40452771       3.39407046
C       -3.45838503       2.01539680       3.52830007
C       -2.64235231       1.20850767       2.72634072
N       -4.23766851       4.28748835       4.14029351
C       -5.21181686       3.96336045       5.07003438
O       -5.55706818       2.84097410       5.41561247
C       -5.93671228       5.13839041       5.64001096
C       -7.29585497       5.00464520       5.94022248
C       -8.02740780       6.10532178       6.40144487
C       -7.41021201       7.35034159       6.57746104
C       -6.04148534       7.46405571       6.32418857
C       -5.30489481       6.36605492       5.86270616
N       -8.22443101       8.42713261       6.98865908
C       -7.82965130       9.73822209       7.19396828
O       -6.69822445      10.19535278       7.11336046
C       -8.93398588      10.65002842       7.57758884
C       -9.67229822      10.34689728       8.73288631
C      -10.69340765      11.19938978       9.15493033
C      -10.97614073      12.35759313       8.43281969
C      -10.24419489      12.66340273       7.28354818
C       -9.22178549      11.81172874       6.85012513
Br      -8.32685509      12.27701583       5.24150556
H       -1.07964114       3.63855331       0.92867218
H       -2.50888000       5.05615486       2.32854147
H       -4.10973509       1.52538215       4.24541121
H       -2.68615102       0.12863772       2.84133526
H       -4.14121933       5.26510082       3.89913616
H       -7.79373328       4.04729901       5.79647556
H       -9.08616403       5.97172857       6.60821768
H       -5.51140779       8.40085327       6.46861637
H       -4.23845753       6.49293562       5.69742398
H       -9.21079049       8.22279898       7.09313328
H       -9.43700345       9.46437216       9.32388099
H      -11.25869509      10.96996008      10.05561711
H      -11.76443134      13.02879330       8.76713472
H      -10.47840698      13.57165036       6.73208035
C        1.79128457      -1.79128457       1.79128457
C        2.70354953      -1.20519187       2.66310965
C        3.50018913      -2.01597476       3.47690960
C        3.38940298      -3.41328916       3.42643871
C        2.47838100      -3.98622728       2.53747363
C        1.67758935      -3.17714621       1.72246513
N        4.21242456      -4.15208927       4.30093653
C        4.23808752      -5.52502960       4.48209457
O        3.54255756      -6.35693433       3.91416286
C        5.18587899      -5.99085338       5.53838128
C        4.82732485      -7.09369436       6.31970344
C        5.65251131      -7.51116449       7.37049864
C        6.84965946      -6.83939084       7.64896434
C        7.22638473      -5.77051976       6.83282512
C        6.40460407      -5.34884421       5.78020761
N        7.59938377      -7.28072536       8.76011357
C        8.78790325      -6.74620519       9.22773324
O        9.43698411      -5.83361823       8.73633536
C        9.30729461      -7.40315259      10.45115593
C        9.56634151      -8.78239678      10.40334351
C       10.09515021      -9.43447853      11.51809903
C       10.37369537      -8.71432478      12.67853341
C       10.11818721      -7.34242788      12.73053071
C        9.58331058      -6.68119504      11.61913374
Br       9.20915851      -4.82923100      11.80698697
H        2.80073498      -0.12445539       2.72167625
H        4.20344762      -1.53671961       4.15340909
H        2.36108203      -5.06250561       2.45694082
H        0.96867187      -3.64386300       1.04358912
H        4.78777078      -3.59702159       4.92066394
H        3.89384304      -7.61878013       6.12488467
H        5.33549071      -8.36079755       7.96982201
H        8.15638701      -5.23269499       6.99179544
H        6.74522222      -4.52608620       5.15750870
H        7.19253814      -8.03620354       9.29798108
H        9.38603797      -9.34769566       9.49152296
H       10.30541568     -10.50105668      11.47779993
H       10.79649864      -9.21942134      13.54443937
H       10.34168557      -6.79596626      13.64448586
C       -0.00445707       0.01189536      -1.78238275
H       -0.66409135       0.67374010      -2.43557963
H        0.65740317      -0.63156657      -2.45157240
C       -0.90989263      -0.90692880      -0.91072765
C        0.90977584       0.90977584      -0.90977584
C       -0.00465871       1.77757030       0.00794375
H       -0.66225468       2.44313916      -0.64384735
H        0.64322798       2.43503045       0.67728295
C       -1.78241447       0.00034974      -0.00472694
H       -2.45427497      -0.65498947       0.64260836
H       -2.43311707       0.67328779      -0.65473579
C       -0.91132561       0.90220522       0.91563759
C       -0.01476271      -0.02253852       1.78660255
H       -0.67934791      -0.69751639       2.42135241
H        0.63392994       0.61504881       2.47327442
C        0.01484550      -1.77751727      -0.01636693
H        0.67870853      -2.42144646      -0.68295456
H       -0.62264859      -2.45592969       0.64226336
C        1.78714474       0.01002794       0.00389507
H        2.44202412       0.67113390       0.66197326
H        2.45385902      -0.65136977      -0.64189061
C        0.91606151      -0.90478549       0.90901405
