186
Properties=species:S:1:pos:R:3 pbc="F F F"
N        1.52290197       6.46104512      -3.93710535
C        2.43902761       5.97193916      -4.43340485
C        3.55810794       5.37447869      -5.03965248
C        4.00279915       5.79934895      -6.25102937
S        3.08802885       6.99905388      -7.12548505
C        4.38547372       7.79558050      -8.05579166
N        5.09370831       6.76513516      -8.77895924
C        5.90683841       5.90717342      -7.92305189
N        5.18470852       5.30241189      -6.80451188
C        5.89993882       4.26354195      -6.19916252
O        7.05022844       3.95646484      -6.50898122
C        5.13421716       3.43209222      -5.20821946
C        4.30460975       4.30353707      -4.27425987
H        5.00102401       4.83573466      -3.60870437
C        3.41526902       3.40921930      -3.41128351
C        3.56858427       3.41056445      -2.01530410
C        2.75981417       2.60519462      -1.20907463
C        1.79157488       1.79157488      -1.79157488
C        1.62070228       1.77833868      -3.17290059
C        2.42656705       2.58545626      -3.97935066
C        5.82146886       7.20774054      -9.90406797
C        6.39517859       8.48527383     -10.00515284
C        7.10055716       8.87238387     -11.14991097
C        7.24121179       7.98258275     -12.21014848
Br       8.18780374       8.50910378     -13.75867974
C        6.68678564       6.70944776     -12.13469194
C        5.98502317       6.32798798     -10.98687906
H        5.03979345       8.35936628      -7.37986324
H        3.89680860       8.50476255      -8.73383162
H        6.75033163       6.47015365      -7.49810205
H        6.32946041       5.08802686      -8.52079037
H        4.52416540       2.72880608      -5.78861357
H        5.84749242       2.83589372      -4.62497946
H        4.31444621       4.04270076      -1.53723283
H        2.89019268       2.62337923      -0.13010863
H        0.86113180       1.14993482      -3.63108974
H        2.26386954       2.56646377      -5.05544185
H        6.31821353       9.20391657      -9.19449672
H        7.53327223       9.86812370     -11.20108208
H        6.78564070       6.00936867     -12.95969317
H        5.53785202       5.33657427     -10.94842723
N       -6.75265788      -3.13673386      -2.03166069
C       -6.22754707      -3.85360285      -2.76322170
C       -5.58610537      -4.72928402      -3.65684972
C       -6.14631794      -5.92298131      -3.98387822
S       -7.60372826      -6.43439409      -3.17444542
C       -8.34917937      -7.44917884      -4.43848766
N       -7.36814739      -8.43087489      -4.83878043
C       -6.26168201      -7.86874597      -5.60663573
N       -5.58405999      -6.74339440      -4.96417790
C       -4.36019068      -6.43480841      -5.56764420
O       -3.94454827      -6.98428023      -6.58684599
C       -3.49090825      -5.45971449      -4.82390612
C       -4.29822941      -4.27523633      -4.30894095
H       -4.59536632      -3.67078697      -5.17930975
C       -3.40868131      -3.41229171      -3.41479881
C       -3.14169826      -2.08063552      -3.77211904
C       -2.33668365      -1.27383130      -2.96356846
C       -1.79157488      -1.79157488      -1.79157488
C       -2.04702497      -3.10765538      -1.41726120
C       -2.85421175      -3.91390313      -2.22325909
C       -7.88829333      -9.58775734      -5.45722670
C       -9.06378359      -9.59674461      -6.22507705
C       -9.53671579     -10.77707676      -6.80905945
C       -8.83633745     -11.96602751      -6.63157806
Br      -9.48000355     -13.56091910      -7.41466461
C       -7.66676165     -11.98471460      -5.87944908
C       -7.19825202     -10.80120428      -5.30043390
H       -8.68149939      -6.82252985      -5.27499373
H       -9.23127320      -7.91743532      -3.98669424
H       -6.60917619      -7.51970474      -6.58970640
H       -5.50674260      -8.64670062      -5.78483442
H       -2.99945114      -6.02195865      -4.02017526
H       -2.70197685      -5.10637496      -5.50001379
H       -3.56168660      -1.65243655      -4.68025665
H       -2.14524426      -0.24411691      -3.25431937
H       -1.62921422      -3.51354099      -0.49940116
H       -3.04917257      -4.93525763      -1.90134496
H       -9.63200927      -8.68734731      -6.39727024
H      -10.45021654     -10.75466754      -7.39759393
H       -7.11586250     -12.90915542      -5.72968462
H       -6.29335031     -10.83280438      -4.69669884
N       -6.10256870       1.26662022       4.55186352
C       -5.92130399       2.40282755       4.52024007
C       -5.69988266       3.79074555       4.48161090
C       -6.72430711       4.66406968       4.66480068
S       -8.35253433       4.05565827       4.80437518
C       -9.09124756       5.31177123       5.83382708
N       -8.85337443       6.58663106       5.19779723
C       -7.46030160       7.01719987       5.25956224
N       -6.49742268       6.03904491       4.75516471
C       -5.22918133       6.59029314       4.54316882
O       -4.92930397       7.74573000       4.84064053
C       -4.25374945       5.72163585       3.79914355
C       -4.28063758       4.28823847       4.31353064
H       -3.83735303       4.28726162       5.32084840
C       -3.40886661       3.41501687       3.41188835
C       -2.28491410       2.76383500       3.94570371
C       -1.47997406       1.95537216       3.13873720
C       -1.79157488       1.79157488       1.79157488
C       -2.90332781       2.42497882       1.24363491
C       -3.71033351       3.23076361       2.05027686
C       -9.73019482       7.62482034       5.57826221
C      -10.32744182       7.71218021       6.84598323
C      -11.19602313       8.76177192       7.16505696
C      -11.47757517       9.73984964       6.21651821
Br     -12.65653525      11.15288292       6.64616910
C      -10.89630134       9.68004845       4.95457553
C      -10.02731731       8.62974544       4.64282745
H       -8.67088881       5.26250695       6.84562721
H      -10.16114277       5.08098694       5.89327306
H       -7.17209594       7.25216378       6.29432761
H       -7.33390393       7.93508148       4.66929222
H       -4.50945934       5.79718894       2.73493678
H       -3.24697887       6.14138517       3.92000157
H       -2.02522868       2.87211630       4.99703484
H       -0.61688787       1.45571310       3.57107957
H       -3.15415458       2.29398737       0.19401441
H       -4.58113968       3.70420042       1.60043507
H      -10.12344218       6.97560021       7.61758443
H      -11.64489594       8.80352116       8.15406091
H      -11.11454640      10.43543127       4.20472488
H       -9.59526881       8.58247533       3.64510938
N        1.97341260      -3.21413152       6.73350832
C        2.97892154      -3.56698981       6.29846026
C        4.20718679      -3.99801886       5.76703346
C        5.28233734      -4.19764249       6.57319764
S        5.17572461      -3.77517699       8.26166618
C        6.32791612      -4.93858437       8.97034538
N        7.58193397      -4.78588580       8.26998294
C        7.54870626      -5.28820289       6.90015456
N        6.46772479      -4.74554341       6.07836409
C        6.64585178      -5.00213073       4.71466078
O        7.55895951      -5.69257595       4.26413903
C        5.71688631      -4.27315930       3.78448324
C        4.28022253      -4.31339617       4.28878798
H        3.91787141      -5.34693412       4.18065751
C        3.41388002      -3.41351256       3.40837925
C        2.35211699      -3.96747558       2.67486025
C        1.54437235      -3.15960046       1.87011061
C        1.79157488      -1.79157488       1.79157488
C        2.83640618      -1.22195416       2.51358121
C        3.64236312      -2.02825634       3.32075452
C        8.72080586      -5.25124820       8.96122331
C        8.69360574      -6.31666568       9.87533383
C        9.85448820      -6.73043687      10.53792694
C       11.06029525      -6.08133109      10.29231668
Br      12.62602143      -6.63628347      11.19328236
C       11.11651447      -5.02591848       9.38849238
C        9.95319118      -4.61881264       8.72788638
H        5.92668990      -5.95658291       8.89575016
H        6.42176227      -4.68181754      10.03182296
H        7.44529344      -6.38283602       6.89045786
H        8.49505412      -5.04547266       6.39775086
H        6.10492860      -3.25182455       3.68483191
H        5.77619462      -4.73939729       2.79277370
H        2.13613191      -5.03296440       2.72528350
H        0.72431452      -3.60588283       1.31348319
H        3.02830222      -0.15324174       2.46061240
H        4.44440966      -1.55613833       3.88522717
H        7.77495317      -6.85673916      10.08493449
H        9.80368106      -7.55755838      11.24123857
H       12.05193352      -4.50841229       9.19435672
H       10.00590892      -3.77814538       8.03879922
C       -0.00445707       0.01189536      -1.78238275
H       -0.66409135       0.67374010      -2.43557963
H        0.65740317      -0.63156657      -2.45157240
C       -0.90989263      -0.90692880      -0.91072765
C        0.90977584       0.90977584      -0.90977584
C       -0.00465871       1.77757030       0.00794375
H       -0.66225468       2.44313916      -0.64384735
H        0.64322798       2.43503045       0.67728295
C       -1.78241447       0.00034974      -0.00472694
H       -2.45427497      -0.65498947       0.64260836
H       -2.43311707       0.67328779      -0.65473579
C       -0.91132561       0.90220522       0.91563759
C       -0.01476271      -0.02253852       1.78660255
H       -0.67934791      -0.69751639       2.42135241
H        0.63392994       0.61504881       2.47327442
C        0.01484550      -1.77751727      -0.01636693
H        0.67870853      -2.42144646      -0.68295456
H       -0.62264859      -2.45592969       0.64226336
C        1.78714474       0.01002794       0.00389507
H        2.44202412       0.67113390       0.66197326
H        2.45385902      -0.65136977      -0.64189061
C        0.91606151      -0.90478549       0.90901405
