173
Properties=species:S:1:pos:R:3 pbc="F F F"
C        0.00000000       0.00000000       0.00000000
N        0.61299794       5.55114110      -3.02720132
C        1.52912358       5.06203514      -3.52350082
C        2.64820391       4.46457466      -4.12974846
C        3.09289513       4.88944492      -5.34112535
S        2.17812482       6.08914985      -6.21558103
C        3.47556969       6.88567647      -7.14588763
N        4.18380429       5.85523114      -7.86905522
C        4.99693438       4.99726939      -7.01314786
N        4.27480450       4.39250787      -5.89460786
C        4.99003479       3.35363793      -5.28925849
O        6.14032441       3.04656081      -5.59907719
C        4.22431314       2.52218820      -4.29831544
C        3.39470573       3.39363304      -3.36435585
H        4.09111998       3.92583064      -2.69880035
C        2.50536499       2.49931527      -2.50137949
C        2.65868024       2.50066043      -1.10540008
C        1.84991014       1.69529060      -0.29917061
C        0.88167086       0.88167086      -0.88167086
C        0.71079825       0.86843466      -2.26299656
C        1.51666303       1.67555223      -3.06944664
C        4.91156483       6.29783652      -8.99416395
C        5.48527456       7.57536980      -9.09524882
C        6.19065313       7.96247985     -10.24000695
C        6.33130777       7.07267872     -11.30024446
C        5.77688161       5.79954373     -11.22478791
C        5.07511914       5.41808395     -10.07697503
H        4.12988943       7.44946225      -6.46995922
H        2.98690458       7.59485853      -7.82392759
H        5.84042760       5.56024962      -6.58819803
H        5.41955638       4.17812283      -7.61088634
H        3.61426137       1.81890206      -4.87870955
H        4.93758840       1.92598970      -3.71507543
H        3.40454219       3.13279674      -0.62732881
H        1.98028866       1.71347520       0.77979540
H       -0.04877222       0.24003080      -2.72118572
H        1.35396552       1.65655975      -4.14553783
H        5.40830950       8.29401255      -8.28459270
H        6.62336821       8.95821968     -10.29117805
H        5.87573668       5.09946464     -12.04978915
H        4.62794800       4.42667025     -10.03852321
C        7.05261056       7.47388760     -12.48022484
C        7.65670165       7.80990004     -13.46845841
Br       8.63346586       8.35320373     -15.06634852
N       -3.87644571      -0.29059310      -5.02430155
C       -4.12302517      -1.34834960      -4.64328478
C       -4.42423082      -2.64043710      -4.17785912
C       -5.60879727      -3.23138161      -4.48328652
S       -6.82412098      -2.31961817      -5.33911655
C       -7.67196617      -3.62694266      -6.20822497
N       -8.07005007      -4.61019129      -5.22784927
C       -6.95243723      -5.37333453      -4.68157988
N       -5.86776007      -4.55881344      -4.13534671
C       -4.97470320      -5.30211501      -3.35611301
O       -5.03774674      -6.52365860      -3.22455708
C       -3.97827656      -4.50463274      -2.56190748
C       -3.36507037      -3.38920697      -3.39841727
H       -2.70990636      -3.85703570      -4.14880891
C       -2.50037006      -2.50556806      -2.50012164
C       -1.12271511      -2.39340439      -2.74862124
C       -0.31704394      -1.58457628      -1.94275113
C       -0.88167086      -0.88167086      -0.88167086
C       -2.24564255      -0.97593214      -0.62065479
C       -3.05230890      -1.78171004      -1.42764296
C       -9.12993976      -5.45678865      -5.61683689
C       -9.37668337      -5.83205537      -6.94715443
C      -10.44877286      -6.66930311      -7.27506396
C      -11.28889294      -7.14299442      -6.27234359
C      -11.06480713      -6.79052651      -4.94587961
C       -9.99024378      -5.95533085      -4.62460350
H       -7.01923058      -4.04706315      -6.98301717
H       -8.53849227      -3.16856871      -6.69862971
H       -6.51334578      -6.02391340      -5.45161608
H       -7.31304339      -6.02307723      -3.87244494
H       -4.50537993      -4.13145004      -1.67504301
H       -3.18962108      -5.18085705      -2.20817540
H       -0.66030192      -2.92854858      -3.57581725
H        0.74641774      -1.50672110      -2.15366511
H       -2.69161617      -0.42319600       0.20236787
H       -4.11789177      -1.82781012      -1.21036120
H       -8.73669240      -5.49353224      -7.75669011
H      -10.61656840      -6.94262607      -8.31357147
H      -11.71874957      -7.15005173      -4.15618917
H       -9.83785526      -5.66968507      -3.58560112
C      -12.39528217      -8.00005537      -6.61138547
C      -13.32188314      -8.71784392      -6.89533304
Br     -14.82011856      -9.87844730      -7.35445225
N       -5.48878730       3.15005407       0.55249900
C       -5.01086278       3.61122840       1.49256836
C       -4.42706084       4.17456940       2.64089680
C       -4.83311202       5.38497270       3.10538068
S       -5.98756136       6.31156543       2.18372891
C       -6.79341564       7.22948568       3.48423247
N       -5.76367955       7.90886252       4.23554857
C       -4.94774692       7.01190851       5.04769620
N       -4.35264939       5.89656927       4.31270156
C       -3.34730112       5.24786738       5.03776272
O       -3.06176959       5.52150844       6.20268439
C       -2.52142396       4.25540862       4.26798420
C       -3.39437916       3.36434762       3.39396784
H       -3.96013110       2.69549989       4.06011998
C       -2.49941691       2.50122962       2.50541323
C       -2.53890991       1.10238229       2.62344855
C       -1.73347557       0.29623686       1.81465891
C       -0.88167086       0.88167086       0.88167086
C       -0.83021198       2.26600537       0.74601212
C       -1.63731441       3.07248663       1.55186086
C       -6.19670174       9.02654488       4.98031869
C       -7.48540806       9.14564515       5.52483998
C       -7.86192303      10.28211707       6.24909983
C       -6.95017282      11.31583768       6.43822045
C       -5.66571816      11.22198698       5.91350811
C       -5.29501605      10.08251566       5.19264642
H       -7.38993102       6.55210080       4.10727907
H       -7.47319975       7.93696646       2.99552449
H       -5.54205627       6.58068012       5.86613886
H       -4.12506765       7.57826978       5.50522813
H       -1.78895577       4.83271827       3.69019894
H       -1.95788088       3.63999728       4.98077536
H       -3.20117887       0.62220477       3.34128410
H       -1.78143355      -0.78480585       1.91734076
H       -0.17181632       2.72674377       0.01388420
H       -1.58780584       4.15142978       1.41682747
H       -8.22157935       8.35547720       5.40985820
H       -8.86668590      10.34770177       6.65837827
H       -4.94829790      12.02642095       6.05027162
H       -4.29390019      10.03010638       4.76913488
C       -7.34031375      12.48747395       7.17893531
C       -7.66705678      13.46871933       7.79928400
Br      -8.19537263      15.05531011       8.80233537
N        5.79190579      -0.98186236       2.41757221
C        5.37293559      -2.00543974       2.73628421
C        4.86114846      -3.25577622       3.12560236
C        5.68794801      -4.31624464       3.31927275
S        7.38279971      -4.16006573       2.93999027
C        8.09146524      -5.32290269       4.09276586
N        7.42511153      -6.58894516       3.89403395
C        6.04350276      -6.59981997       4.36402891
N        5.20897192      -5.52567118       3.82727711
C        3.84429763      -5.74175175       4.04688184
O        3.39975025      -6.68142955       4.70478262
C        2.90944155      -4.81760602       3.31776920
C        3.37810300      -3.37091287       3.40367875
H        3.23717065      -3.03605598       4.44252434
C        2.49848691      -2.50409589       2.50347695
C        1.72698104      -1.47336196       3.06439775
C        0.92223277      -0.66554412       2.25659446
C        0.88167086      -0.88167086       0.88167086
C        1.64163121      -1.89537679       0.30522147
C        2.44879576      -2.70131354       1.11155260
C        8.13236091      -7.72215450       4.34904989
C        9.02037977      -7.69910727       5.43640614
C        9.70073233      -8.85374908       5.83865852
C        9.49933507     -10.04907532       5.15582056
C        8.62205781     -10.10112441       4.07803104
C        7.94347681      -8.94415632       3.68254499
H        7.98348155      -4.94803561       5.11779373
H        9.16060335      -5.38570954       3.85937782
H        6.00572309      -6.52291683       5.46023533
H        5.56973217      -7.55157646       4.08725692
H        2.84303861      -5.18329345       2.28554092
H        1.90880063      -4.91125382       3.75859908
H        1.74727252      -1.28184485       4.13555037
H        0.33582933       0.13033863       2.70847777
H        1.61829391      -2.06280071      -0.76865032
H        3.04321299      -3.47839259       0.63445750
H        9.19521817      -6.78900481       6.00269177
H       10.38308033      -8.80633107       6.68335454
H        8.46254942     -11.02816277       3.53427828
H        7.27570802      -8.99282653       2.82460690
C       10.20417517     -11.23555742       5.56699042
C       10.79447876     -12.22923618       5.91134517
Br      11.74894974     -13.83593069       6.46813768
