166
Properties=species:S:1:pos:R:3 pbc="F F F"
C        1.79100304       1.79100304      -1.79100304
C        1.31273125       3.01593182      -2.24603931
C        2.12821421       3.82499763      -3.04416998
C        3.42736180       3.42440482      -3.39598699
C        3.87411237       2.17477113      -2.94733986
C        3.06867492       1.36567697      -2.13913085
N        4.19457522       4.26266117      -4.22627162
C        5.20138669       3.90338034      -5.10683211
N        5.36695541       2.66429556      -5.48699724
N        6.28040237       2.40561932      -6.47351798
C        6.88836865       3.28118690      -7.33901258
S        6.54918700       4.96703727      -7.28396594
C        6.11671396       5.05570705      -5.54184303
N        7.65441503       2.65277953      -8.19049186
N        7.54321882       1.31139114      -7.91096600
C        6.70316244       1.15052688      -6.89864057
C        6.26226843      -0.13278250      -6.33256294
C        4.89964268      -0.32583368      -6.02994953
C        4.42947363      -1.53739460      -5.51587349
C        5.31086150      -2.59122435      -5.30834229
C        6.66231317      -2.42936565      -5.60598751
C        7.13972325      -1.20995090      -6.11012111
H        0.30975303       3.34849286      -1.99150316
H        1.72748282       4.77013373      -3.40292652
H        4.87173516       1.81946621      -3.19394377
H        3.45285412       0.41039282      -1.78970832
H        3.96004966       5.24482139      -4.13701909
H        7.02649727       5.00661186      -4.93326506
H        5.63512159       6.01859562      -5.34717168
H        4.17564229       0.46978039      -6.20054310
H        3.37269450      -1.65559643      -5.28827056
H        4.94816053      -3.53864821      -4.91775508
H        7.34290565      -3.26144389      -5.43960698
C        8.55949356      -1.13172860      -6.33757114
C        9.74855120      -1.06621741      -6.52806055
Br      11.67115684      -0.96029137      -6.83606581
C       -1.79100304      -1.79100304      -1.79100304
C       -1.57207518      -3.16435237      -1.83827482
C       -2.38944954      -3.96918034      -2.63875194
C       -3.43308042      -3.41623609      -3.39843710
C       -3.61443956      -2.02786226      -3.35392154
C       -2.80860449      -1.21824531      -2.54663294
N       -4.20610626      -4.26710199      -4.21029975
C       -4.87587944      -3.95424080      -5.38147890
N       -4.62349078      -2.85445718      -6.04030026
N       -5.21014629      -2.68383936      -7.26555402
C       -5.83586945      -3.61220947      -8.06048921
S       -5.97618998      -5.25503604      -7.56896420
C       -5.95380163      -4.96498542      -5.79547699
N       -6.21344930      -3.08816436      -9.19607277
N       -5.81007160      -1.77405065      -9.18145371
C       -5.18631308      -1.52761609      -8.03840073
C       -4.54739347      -0.26034798      -7.65430742
C       -3.27596333      -0.28064987      -7.04714532
C       -2.61777782       0.89917522      -6.68934992
C       -3.21039582       2.12921403      -6.94679765
C       -4.46404279       2.17788629      -7.55277852
C       -5.13319484       0.99481195      -7.90151056
H       -0.76901549      -3.61770941      -1.26302415
H       -2.18909264      -5.03744454      -2.67400590
H       -4.40805486      -1.55209435      -3.92499593
H       -2.98874504      -0.14634065      -2.51786957
H       -4.26495138      -5.21664810      -3.86029065
H       -6.92343636      -4.56833582      -5.47460202
H       -5.79677826      -5.91958314      -5.28452749
H       -2.77052187      -1.22514055      -6.85030335
H       -1.63863562       0.85187288      -6.21860589
H       -2.69801165       3.04981574      -6.67907149
H       -4.91804947       3.14658636      -7.74960562
C       -6.44347653       1.15505111      -8.47691069
C       -7.54083744       1.28925140      -8.95880830
Br      -9.31517723       1.50624193      -9.73799598
C       -1.79100304       1.79100304       1.79100304
C       -3.17560281       1.66484753       1.73425203
C       -3.97857061       2.46688278       2.55192843
C       -3.41230738       3.40068378       3.43476246
C       -2.01721812       3.52666679       3.45233845
C       -1.20747614       2.71980074       2.64620586
N       -4.26681430       4.20373396       4.21295974
C       -4.02669220       5.47332156       4.71158538
N       -3.04695014       6.21080880       4.26048927
N       -2.96257573       7.50863687       4.68832707
C       -3.90728238       8.26907284       5.33221291
S       -5.45502611       7.62532995       5.71983415
C       -4.95883519       5.90308619       5.85234266
N       -3.48564220       9.49109493       5.52094930
N       -2.22985296       9.56866725       4.96705574
C       -1.91637438       8.39205637       4.44389914
C       -0.68774337       8.07174248       3.70256302
C       -0.77083507       7.31808396       2.51483949
C        0.36628041       7.01208656       1.76214637
C        1.61284293       7.46844829       2.17237408
C        1.72218069       8.22184087       3.33927485
C        0.58411362       8.51985806       4.10414902
H       -3.63996298       0.95252084       1.05726524
H       -5.05861382       2.36365685       2.47827240
H       -1.53124553       4.23613322       4.11776639
H       -0.12677468       2.82740197       2.69877860
H       -5.15588988       3.76393244       4.42206781
H       -4.42540020       5.74477362       6.79620037
H       -5.85667722       5.27804920       5.86616247
H       -1.73349422       6.96246163       2.15000993
H        0.27141140       6.42518435       0.85159568
H        2.49887447       7.24113344       1.58500843
H        2.70324675       8.57387626       3.65043923
C        0.81328040       9.26175508       5.31686143
C        1.00520757       9.88309385       6.33250807
Br       1.31553758      10.88774607       7.97472279
C        1.79100304      -1.79100304       1.79100304
C        3.17362515      -1.63634794       1.76472928
C        3.97628301      -2.43868055       2.58241826
C        3.41162824      -3.40114183       3.43498354
C        2.01929271      -3.55504110       3.42188955
C        1.20953737      -2.74824678       2.61569860
N        4.26660648      -4.20267175       4.21422977
C        4.04234691      -5.48657248       4.68267975
N        3.08681595      -6.23404754       4.19738473
N        3.02021306      -7.54166554       4.59766108
C        3.96715281      -8.29610104       5.24531429
S        5.49360754      -7.62980924       5.67677344
C        4.96021703      -5.92075028       5.83329673
N        3.56662064      -9.52979064       5.40127514
N        2.32386251      -9.62100248       4.82071096
C        1.99710562      -8.44050289       4.31472138
C        0.77717067      -8.12966525       3.55521295
C        0.86851889      -7.35068111       2.38455852
C       -0.25942327      -7.05211365       1.61526215
C       -1.50439188      -7.54124827       1.99112305
C       -1.62156891      -8.32006559       3.14043834
C       -0.49307776      -8.61088316       3.92208806
H        3.63681543      -0.90144574       1.11148789
H        5.05526790      -2.31263233       2.53264285
H        1.53466967      -4.28727854       4.06319693
H        0.13040012      -2.87825587       2.64429927
H        5.14230751      -3.74967170       4.44991093
H        4.40511775      -5.79211706       6.76913938
H        5.84480590      -5.27847206       5.87761093
H        1.83083321      -6.96878133       2.04635124
H       -0.15842115      -6.44518269       0.71860710
H       -2.38303391      -7.31970069       1.39060062
H       -2.60129307      -8.69766057       3.42470123
C       -0.73117473      -9.38150622       5.11500462
C       -0.93058094     -10.02690303       6.11407225
Br      -1.25300391     -11.07045508       7.72948010
C       -0.00445707       0.01189536      -1.78238275
H       -0.66409135       0.67374010      -2.43557963
H        0.65740317      -0.63156657      -2.45157240
C       -0.90989263      -0.90692880      -0.91072765
C        0.90977584       0.90977584      -0.90977584
C       -0.00465871       1.77757030       0.00794375
H       -0.66225468       2.44313916      -0.64384735
H        0.64322798       2.43503045       0.67728295
C       -1.78241447       0.00034974      -0.00472694
H       -2.45427497      -0.65498947       0.64260836
H       -2.43311707       0.67328779      -0.65473579
C       -0.91132561       0.90220522       0.91563759
C       -0.01476271      -0.02253852       1.78660255
H       -0.67934791      -0.69751639       2.42135241
H        0.63392994       0.61504881       2.47327442
C        0.01484550      -1.77751727      -0.01636693
H        0.67870853      -2.42144646      -0.68295456
H       -0.62264859      -2.45592969       0.64226336
C        1.78714474       0.01002794       0.00389507
H        2.44202412       0.67113390       0.66197326
H        2.45385902      -0.65136977      -0.64189061
C        0.91606151      -0.90478549       0.90901405
