173
Properties=species:S:1:pos:R:3 pbc="F F F"
C        0.00000000       0.00000000       0.00000000
C        0.88177369       0.88177369      -0.88177369
C        2.05112778       1.42869667      -0.36183863
C        2.85633696       2.24021985      -1.16573016
C        2.50419415       2.50973401      -2.49916775
C        1.32269996       1.93824030      -3.00390451
C        0.51212275       1.13392262      -2.19937232
C        3.35298265       3.38785069      -3.42902607
H        2.64308235       3.82119563      -4.14624732
C        4.04066720       4.58076260      -2.73172916
C        3.02505838       5.55935249      -2.15942713
O        1.88873971       5.65607564      -2.62276061
N        3.44360231       6.34887387      -1.09677569
C        4.83429544       6.73947353      -0.84634007
C        5.04733636       8.20106582      -1.27108754
O        4.10726493       9.07598440      -0.62484267
C        2.75239577       8.69762858      -0.93606733
C        2.47822940       7.26221975      -0.47942251
C        4.38096534       2.56714182      -4.21540015
C        5.30196640       1.73198833      -3.55508192
C        6.22467119       0.97415630      -4.27856572
Br       7.43581582      -0.15120962      -3.36138252
C        6.26002158       1.03877104      -5.66805208
C        5.36889643       1.87399670      -6.34010483
C        4.44430409       2.63075270      -5.61621074
O        3.58678548       3.45838127      -6.28331957
H        2.34477819       1.23241614       0.66571190
H        3.76220034       2.64952283      -0.72800551
H        1.02056148       2.13095538      -4.03195888
H       -0.40221851       0.71503709      -2.61079563
H        4.64739150       5.13876412      -3.45673104
H        4.71263372       4.22614081      -1.94403861
H        5.54530176       6.09903108      -1.37069334
H        5.00127874       6.63557063       0.23208186
H        6.05306868       8.52818645      -0.98992871
H        4.94570877       8.31382878      -2.35685969
H        2.08551851       9.39164643      -0.41562456
H        2.59004797       8.81264431      -2.01410067
H        2.61937740       7.18202981       0.60474621
H        1.44835600       6.97271789      -0.70819089
H        5.29501804       1.65835925      -2.47134826
H        6.97514429       0.44666216      -6.23329693
H        5.40936109       1.92226633      -7.42412689
H        3.72056734       3.35576185      -7.23996074
C       -0.88177369      -0.88177369      -0.88177369
C       -2.06857464      -0.37258693      -1.40050151
C       -2.87930378      -1.17987908      -2.20310411
C       -2.51023212      -2.50288750      -2.49997629
C       -1.30216865      -2.99125600      -1.97142013
C       -0.49479434      -2.18869700      -1.16192636
C       -3.35774393      -3.43195930      -3.38015618
H       -3.13309428      -4.44812375      -3.02930727
C       -4.88212813      -3.25011903      -3.22091179
C       -5.34459971      -3.58840223      -1.81083606
O       -4.71298835      -4.36266537      -1.09192223
N       -6.52082782      -2.99252922      -1.37589483
C       -7.60826319      -2.55526883      -2.25657703
C       -8.76704485      -3.56264872      -2.18979616
O       -9.20607388      -3.76601157      -0.83600655
C       -8.12765994      -4.24754905      -0.01088269
C       -6.96943395      -3.24627105      -0.00416667
C       -2.96321387      -3.34198111      -4.85831232
C       -2.95022304      -2.10626845      -5.53254516
C       -2.57350397      -2.02923003      -6.87465922
Br      -2.54954250      -0.35114818      -7.74529804
C       -2.21451694      -3.17578114      -7.57654662
C       -2.23884858      -4.41180960      -6.93233978
C       -2.61388124      -4.48856163      -5.58882465
O       -2.65035300      -5.70642159      -4.97171173
H       -2.37333992       0.64811618      -1.18625869
H       -3.79782452      -0.74995212      -2.59195205
H       -0.99012581      -4.01320870      -2.18014123
H        0.42759657      -2.59516124      -0.75604954
H       -5.41288240      -3.92831886      -3.90168539
H       -5.17335871      -2.22787254      -3.48158188
H       -7.28246653      -2.44088993      -3.29166972
H       -7.94034834      -1.57855943      -1.88585974
H       -9.62050356      -3.18768031      -2.76299996
H       -8.47247124      -4.52955466      -2.61437134
H       -8.51765135      -4.37820010       1.00306194
H       -7.80700672      -5.22805686      -0.38172938
H       -7.30960724      -2.28471371       0.39765995
H       -6.15056915      -3.60503324       0.62633760
H       -3.22169062      -1.19405553      -5.00897940
H       -1.91729156      -3.11735949      -8.62045233
H       -1.96347658      -5.30125753      -7.49102020
H       -2.33866793      -6.38862870      -5.58899330
C       -0.88177369       0.88177369       0.88177369
C       -0.35291997       2.03506881       1.45367431
C       -1.15690602       2.84016547       2.26521549
C       -2.49925153       2.50403767       2.50980670
C       -3.01272211       1.33873961       1.91338305
C       -2.20828201       0.52816057       1.10897511
C       -3.42952977       3.35360483       3.38672481
H       -4.16350013       2.64819220       3.79883297
C       -2.74007715       4.01318982       4.59989198
C       -2.19744027       2.97487244       5.57152529
O       -2.67882516       1.84429592       5.64445488
N       -1.14065064       3.36585501       6.38274622
C       -0.87564935       4.74676146       6.79769823
C       -1.31898438       4.94460204       8.25590330
O       -0.69976286       3.98222639       9.12610274
C       -1.02519579       2.63786325       8.72303265
C       -0.55126004       2.37804955       7.29056207
C       -4.18836604       4.40516665       2.56997461
C       -3.50218517       5.32839154       1.75845994
C       -4.20063150       6.27283536       1.00392636
Br      -3.24904420       7.48657412      -0.08962960
C       -5.59025737       6.32796525       1.04862209
C       -6.28773194       5.43478377       1.86048225
C       -5.58888710       4.48846252       2.61391790
O       -6.28081127       3.62891815       3.41875691
H        0.68165253       2.31620536       1.27692959
H       -0.71206538       3.73327837       2.69438494
H       -4.04786993       1.04917680       2.08642902
H       -2.62680874      -0.37367997       0.67048544
H       -3.46432590       4.62239582       5.15616492
H       -1.93738568       4.67846764       4.26695981
H       -1.37987387       5.47485514       6.16029717
H        0.20654204       4.89914107       6.71216848
H       -1.02798008       5.94110712       8.60209663
H       -2.40769555       4.85754321       8.35115847
H       -0.52503158       1.95315949       9.41459844
H       -2.10709637       2.48994891       8.81974767
H        0.53594307       2.50416506       7.22843901
H       -0.79080181       1.35607361       6.98238936
H       -2.41769271       5.30635322       1.70067963
H       -6.13602531       7.06007394       0.45900412
H       -7.37164140       5.49070826       1.89340464
H       -7.23374364       3.77845706       3.30408923
C        0.88177369      -0.88177369       0.88177369
C        0.58038411      -1.02880456       2.23247441
C        1.38938653      -1.83097589       3.04192455
C        2.50518885      -2.49871667       2.50919039
C        2.78356258      -2.34141953       1.13986266
C        1.98117808      -1.53317204       0.33106757
C        3.42416482      -3.39674575       3.34894884
H        4.40536010      -3.34707393       2.85809127
C        3.64391726      -2.91165085       4.79759084
C        4.34454011      -1.56105682       4.83824108
O        5.06858283      -1.18073706       3.91825606
N        4.13959926      -0.78114880       5.96850381
C        3.81418117      -1.30895057       7.29697731
C        5.06204229      -1.26441857       8.19302887
O        5.61786849       0.06019927       8.25042278
C        5.97702933       0.52626818       6.93533054
C        4.74910217       0.55039308       6.02116256
C        2.96324568      -4.85832027       3.34194135
C        1.65485223      -5.20900770       3.72517672
C        1.23639006      -6.54069582       3.70030733
Br      -0.53333668      -6.97530469       4.20402070
C        2.10942947      -7.55029952       3.30711572
C        3.41510619      -7.22612701       2.94176476
C        3.83316109      -5.89335730       2.96474913
O        5.11926382      -5.58835766       2.62086484
H       -0.27851131      -0.52392076       2.66607298
H        1.12438974      -1.92422333       4.09111561
H        3.64296797      -2.84272665       0.69778112
H        2.22614836      -1.41886044      -0.72139459
H        4.28655135      -3.62036803       5.33596726
H        2.68993339      -2.86131074       5.33156900
H        3.43070858      -2.32963787       7.25467973
H        3.03347163      -0.66029682       7.71099906
H        4.79882185      -1.55871572       9.21364627
H        5.83208635      -1.95489730       7.82941359
H        6.38724626       1.53516121       7.04070445
H        6.76405162      -0.12123637       6.53150497
H        3.99067001       1.22661218       6.43260318
H        5.01602344       0.90970668       5.02294802
H        0.95024693      -4.44165372       4.03282490
H        1.78437308      -8.58725403       3.28347626
H        4.09041597      -8.02225385       2.64308448
H        5.57739233      -6.39791122       2.34098638
