109
Properties=species:S:1:pos:R:3 pbc="F F F"
C        0.00000000       0.00000000       0.00000000
C        0.88164940       0.88164940      -0.88164940
C        0.30850137       1.90664804      -1.63115624
C        1.11650606       2.70937337      -2.44435707
C        2.50173270       2.49406521      -2.51450388
C        3.05933739       1.45789348      -1.74587881
C        2.25402848       0.65358811      -0.93339329
C        3.34592527       3.32919041      -3.37829496
N        4.67603602       3.17293627      -3.42297025
S        5.26375135       4.28247827      -4.51504704
C        3.72156837       4.91107359      -4.87186993
N        3.48294549       5.91815407      -5.76914791
C        4.42732077       6.60122715      -6.49987786
O        5.63794888       6.41383759      -6.45179562
C        3.85138153       7.61287873      -7.36620872
C        4.45340512       8.54412149      -8.19189850
C        3.41094134       9.27614263      -8.80959603
C        2.23541297       8.74638759      -8.32976739
Br       0.52666308       9.31641081      -8.81295581
O        2.48922759       7.74084910      -7.44872997
N        2.76905413       4.31511757      -4.19323009
H       -0.76224566       2.08895413      -1.59293244
H        0.65335269       3.50497557      -3.02459076
H        4.13055193       1.26417525      -1.77577740
H        2.70910195      -0.14390202      -0.35161825
H        2.51030564       6.17318941      -5.88361668
H        5.52066623       8.67043067      -8.32219017
H        3.50952508      10.08670082      -9.51875527
C       -0.88164940      -0.88164940      -0.88164940
C       -2.00777983      -1.49800382      -0.34052200
C       -2.81097895      -2.31158120      -1.14767634
C       -2.49519458      -2.51501620      -2.50009102
C       -1.35756021      -1.87922702      -3.02632245
C       -0.55264208      -1.06671088      -2.22165692
C       -3.33203503      -3.37938337      -3.34199224
N       -3.07705279      -3.54826371      -4.64662603
S       -4.22573853      -4.59638387      -5.23915427
C       -5.00035320      -4.77166664      -3.73249205
N       -6.09512512      -5.56446219      -3.51066016
C       -6.76188352      -6.31694571      -4.44959655
O       -6.47743833      -6.38601473      -5.64012903
C       -7.88483916      -7.05015421      -3.89547562
C       -8.83279347      -7.84873747      -4.50789417
C       -9.69328438      -8.31732288      -3.48607274
C       -9.21801277      -7.78262337      -2.31093181
Br      -9.95808101      -8.07392679      -0.62402191
O       -8.12496174      -7.00712393      -2.54672098
N       -4.42516827      -4.06345996      -2.78877357
H       -2.26899770      -1.35540964       0.70476642
H       -3.68637272      -2.78692874      -0.70961755
H       -1.08426621      -2.01447889      -4.07175948
H        0.32412838      -0.58929674      -2.65164981
H       -6.43385034      -5.57617474      -2.55708664
H       -8.88619564      -8.05847332      -5.56861811
H      -10.55069850      -8.96702153      -3.59726114
C       -0.88164940       0.88164940       0.88164940
C       -0.30190346       1.67573504       1.86866715
C       -1.11154997       2.47784292       2.68084360
C       -2.50500204       2.49241458       2.51288517
C       -3.06796857       1.68756215       1.50757896
C       -2.26129942       0.88426717       0.69544329
C       -3.35382223       3.32493910       3.37464932
N       -4.68070483       3.39142538       3.19981232
S       -5.27854258       4.41510996       4.36762412
C       -3.74474548       4.71527359       5.04449282
N       -3.51875164       5.52722334       6.12427249
C       -4.46464825       6.24767439       6.81610314
O       -5.66382633       6.27695441       6.56280136
C       -3.90389254       7.01141764       7.91515880
C       -4.49629184       7.90213402       8.79099925
C       -3.47894609       8.35012133       9.66761258
C       -2.32806061       7.70379273       9.27971461
Br      -0.66172505       7.90040839      10.09389626
O       -2.57139342       6.89357577       8.21383746
N       -2.78716541       4.07086108       4.41937530
H        0.77478329       1.67764309       2.01678112
H       -0.64347395       3.09133654       3.44810853
H       -4.14534787       1.67580849       1.34934821
H       -2.72150944       0.26778693      -0.07247820
H       -2.55307866       5.59462035       6.41941271
H       -5.54064107       8.18722998       8.78541602
H       -3.57820340       9.05472956      10.48204820
C        0.88164940      -0.88164940       0.88164940
C        1.90236570      -1.63631327       0.30762668
C        2.70507431      -2.44949696       1.11566522
C        2.49402410      -2.51447894       2.50179875
C        1.46214621      -1.74071101       3.06025246
C        0.65786397      -0.92822881       2.25491710
C        3.32908619      -3.37824048       3.34608397
N        3.17699319      -3.41812002       4.67682932
S        4.28490315      -4.51187993       5.26449359
C        4.90735135      -4.87570659       3.72145394
N        5.91075546      -5.77700321       3.48248879
C        6.59452029      -6.50688995       4.42701553
O        6.41120477      -6.45429753       5.63807979
C        7.60150386      -7.37834244       3.85062268
C        8.53202185      -8.20509508       4.45230819
C        9.25867031      -8.82851666       3.40949302
C        8.72666485      -8.35077017       2.23413293
Br       9.28959511      -8.84130873       0.52512587
O        7.72479949      -7.46566994       2.48833723
N        4.31050835      -4.19821755       2.76867589
H        2.08132873      -1.60213297      -0.76382079
H        3.49729837      -3.03379250       0.65182815
H        1.27179951      -1.76652775       4.13217732
H       -0.13626917      -0.34241190       2.71067545
H        6.16227197      -5.89543280       2.50940694
H        8.66136265      -8.33235206       5.51957236
H       10.06725192      -9.53997314       3.50775611
