130
Properties=species:S:1:pos:R:3 pbc="F F F"
C        1.79155342       1.79155342      -1.79155342
C        1.21840539       2.81655207      -2.54106027
C        2.02641008       3.61927739      -3.35426109
C        3.41163673       3.40396923      -3.42440790
C        3.96924141       2.36779751      -2.65578283
C        3.16393251       1.56349213      -1.84329731
C        4.25582929       4.23909443      -4.28819898
N        5.58594004       4.08284029      -4.33287428
S        6.17365537       5.19238230      -5.42495106
C        4.63147240       5.82097761      -5.78177395
N        4.39284952       6.82805809      -6.67905193
C        5.33722479       7.51113117      -7.40978189
O        6.54785290       7.32374162      -7.36169965
C        4.76128556       8.52278275      -8.27611275
C        5.36330915       9.45402551      -9.10180252
C        4.32084537      10.18604665      -9.71950006
C        3.14531699       9.65629162      -9.23967141
Br       1.43656711      10.22631484      -9.72285983
O        3.39913161       8.65075312      -8.35863399
N        3.67895815       5.22502159      -5.10313412
H        0.14765837       2.99885815      -2.50283646
H        1.56325671       4.41487959      -3.93449479
H        5.04045596       2.17407927      -2.68568142
H        3.61900598       0.76600200      -1.26152227
H        3.42020966       7.08309343      -6.79352070
H        6.43057025       9.58033469      -9.23209420
H        4.41942910      10.99660485     -10.42865929
C       -1.79155342      -1.79155342      -1.79155342
C       -1.26664186      -2.95078495      -2.35859091
C       -2.07349203      -3.75417918      -3.17227735
C       -3.40941640      -3.40554827      -3.42504919
C       -3.91966475      -2.23467442      -2.83848259
C       -3.11521919      -1.42952220      -2.02598056
C       -4.25051555      -4.24306358      -4.28954358
N       -5.54151634      -3.95553555      -4.50460272
S       -6.13744025      -5.11733671      -5.53621178
C       -4.65012058      -5.94017323      -5.64393014
N       -4.43817923      -7.06408639      -6.39769392
C       -5.37439582      -7.72551582      -7.15822621
O       -6.55340717      -7.40887804      -7.27100895
C       -4.83302095      -8.88543927      -7.84172084
C       -5.45005852      -9.83865910      -8.63041956
C       -4.44122335     -10.74200088      -9.04316785
C       -3.26841037     -10.28523701      -8.48763264
Br      -1.59660590     -11.08224291      -8.70689297
O       -3.49384705      -9.16315499      -7.75151668
N       -3.71057591      -5.37169799      -4.92483997
H       -0.23418632      -3.23781221      -2.17735446
H       -1.64816300      -4.65569603      -3.60877205
H       -4.95212115      -1.93535804      -3.01273747
H       -3.53250810      -0.52680193      -1.58722022
H       -3.49520074      -7.43050131      -6.37112174
H       -6.50538017      -9.86753604      -8.87008293
H       -4.55907701     -11.61484054      -9.67077568
C       -1.79155342       1.79155342       1.79155342
C       -2.81585884       1.21826146       2.54189743
C       -3.62782218       2.02818425       3.34394213
C       -3.42243057       3.41546988       3.40211342
C       -2.38000627       3.97177634       2.64103915
C       -1.56796929       3.16486211       1.83789055
C       -4.28372834       4.26509670       4.23429767
N       -4.07473160       5.58425642       4.34266658
S       -5.25403705       6.18645684       5.35049485
C       -5.98059093       4.66461314       5.58901989
N       -7.08844856       4.44691477       6.36459621
C       -7.77415799       5.39183743       7.09214243
O       -7.48919394       6.58220601       7.16189422
C       -8.90904832       4.84148644       7.80964630
C       -9.79302886       5.43369691       8.69241141
C      -10.70924311       4.42947741       9.08767156
C      -10.33489622       3.28621665       8.42016715
Br     -11.19936902       1.63860376       8.54776900
O       -9.24050656       3.52158297       7.64642919
N       -5.36399207       3.70781280       4.93530900
H       -2.99325137       0.14649422       2.50960739
H       -4.42444095       1.56524195       3.92294818
H       -2.19221002       5.04422047       2.66378616
H       -0.77082514       3.62000741       1.25569770
H       -7.41156457       3.48841060       6.39684862
H       -9.76697905       6.46932349       9.00669659
H      -11.54008983       4.53227368       9.77232973
C        1.79155342      -1.79155342       1.79155342
C        3.05861080      -1.35048247       2.16692445
C        3.86855701      -2.16242717       2.96896438
C        3.41883724      -3.41974931       3.40142732
C        2.13523847      -3.84234775       3.01523554
C        1.32437117      -3.03345840       2.21289238
C        4.27531450      -4.27559243       4.23221579
N        3.84756959      -5.45756679       4.69651822
S        5.09692926      -6.12157232       5.57248716
C        6.14020241      -4.80565442       5.28836713
N        7.42394614      -4.71799025       5.75802316
C        8.06963285      -5.64196600       6.54653899
O        7.58523408      -6.69053382       6.95752627
C        9.42936562      -5.25595400       6.87486143
C       10.36955310      -5.86285819       7.68672589
C       11.53096730      -5.05468872       7.64073606
C       11.23422558      -4.00630187       6.80075257
Br      12.40596154      -2.62587091       6.35390933
O        9.96030807      -4.11367800       6.33453266
N        5.58045909      -3.87289929       4.55375549
H        3.42691199      -0.38122193       1.84121907
H        4.85617002      -1.80404270       3.25241837
H        1.75459708      -4.81156943       3.33405014
H        0.33699369      -3.38492161       1.92461495
H        7.92451301      -3.87932237       5.49298842
H       10.22067734      -6.77996722       8.24235458
H       12.46724988      -5.22187278       8.15557058
C       -0.00445707       0.01189536      -1.78238275
H       -0.66409135       0.67374010      -2.43557963
H        0.65740317      -0.63156657      -2.45157240
C       -0.90989263      -0.90692880      -0.91072765
C        0.90977584       0.90977584      -0.90977584
C       -0.00465871       1.77757030       0.00794375
H       -0.66225468       2.44313916      -0.64384735
H        0.64322798       2.43503045       0.67728295
C       -1.78241447       0.00034974      -0.00472694
H       -2.45427497      -0.65498947       0.64260836
H       -2.43311707       0.67328779      -0.65473579
C       -0.91132561       0.90220522       0.91563759
C       -0.01476271      -0.02253852       1.78660255
H       -0.67934791      -0.69751639       2.42135241
H        0.63392994       0.61504881       2.47327442
C        0.01484550      -1.77751727      -0.01636693
H        0.67870853      -2.42144646      -0.68295456
H       -0.62264859      -2.45592969       0.64226336
C        1.78714474       0.01002794       0.00389507
H        2.44202412       0.67113390       0.66197326
H        2.45385902      -0.65136977      -0.64189061
C        0.91606151      -0.90478549       0.90901405
