85
Properties=species:S:1:pos:R:3 pbc="F F F"
C        0.00000000       0.00000000       0.00000000
O       -4.13497026       5.76920996      -1.66670249
C       -2.99905765       5.36421828      -1.89146172
N       -2.54333093       4.17750772      -1.38665450
C       -1.34848534       3.74528146      -1.63034967
N       -0.89187526       2.55996058      -1.12659552
H       -1.49927685       1.99678828      -0.54536279
C        0.40864262       2.10441911      -1.40046663
C        0.88704421       0.88704421      -0.88704421
C        2.18178911       0.45128170      -1.16964802
C        3.01503110       1.22987630      -1.97086387
C        2.55364200       2.44369123      -2.48935267
Br       3.74730758       3.44993637      -3.57318795
C        1.25183708       2.90013296      -2.21599698
N        0.80366053       4.13460200      -2.75215801
C       -0.40356231       4.54485441      -2.49102436
C       -0.90388524       5.84935568      -3.04636706
O       -0.22691333       6.56857172      -3.76002447
N       -2.18284808       6.13594874      -2.67180111
H       -2.58462105       6.99595842      -3.01276127
H        2.55201997      -0.49109884      -0.77212000
H        4.02366491       0.88444494      -2.18742994
O        4.22592725      -5.63082821      -1.89604124
C        3.07606347      -5.24756157      -2.08512426
N        2.60521617      -4.08376315      -1.54228432
C        1.39538214      -3.67422556      -1.74830237
N        0.92365911      -2.51181267      -1.20652729
H        1.53146078      -1.94801642      -0.62631857
C       -0.39303325      -2.08076067      -1.43973443
C       -0.88704421      -0.88704421      -0.88704421
C       -2.19771808      -0.47542476      -1.12957598
C       -3.03146159      -1.25478324      -1.92952643
C       -2.55465452      -2.44522477      -2.48680661
Br      -3.75004030      -3.45408955      -3.56630206
C       -1.23666725      -2.87713450      -2.25416525
N       -0.77300675      -4.08812387      -2.82928992
C        0.44910326      -4.47580884      -2.60561088
C        0.96603787      -5.75512889      -3.20274648
O        0.28917367      -6.47348088      -3.91737566
N        2.25967579      -6.02013858      -2.86443899
H        2.67295196      -6.86243587      -3.23461473
H       -2.58003039       0.44864211      -0.70165284
H       -4.05255694      -0.92824534      -2.11473751
O       -5.58048747      -4.25583233       1.97628706
C       -5.19803986      -3.10548200       2.16406450
N       -4.04388430      -2.62890634       1.60585334
C       -3.64422644      -1.41320321       1.79612256
N       -2.49134941      -0.93581538       1.23914681
H       -1.92754249      -1.54362339       0.65895511
C       -2.07088376       0.38716583       1.45547876
C       -0.88704421       0.88704421       0.88704421
C       -0.48550092       2.20370386       1.11351404
C       -1.26512500       3.03760515       1.91304112
C       -2.44588045       2.55504402       2.48576144
Br      -3.45566236       3.75097463       3.56379491
C       -2.86762161       1.23101609       2.26932931
N       -4.06896982       0.76162822       2.85982250
C       -4.44728489      -0.46604800       2.65107957
C       -5.71614383      -0.98919707       3.26489075
O       -6.44410653      -0.30662360       3.96419994
N       -5.96276584      -2.29375826       2.95589419
H       -6.80161708      -2.70908157       3.33156313
H        0.43095371       2.59053824       0.67345660
H       -0.94638858       4.06333499       2.08581621
O        5.55700109       4.26924719       2.01318829
C        5.17818123       3.11677414       2.19521527
N        4.02792533       2.63798044       1.63088640
C        3.63213189       1.42008167       1.81509558
N        2.48315292       0.94047595       1.25200387
H        1.91924192       1.54834495       0.67197724
C        2.06685774      -0.38487535       1.46179526
C        0.88704421      -0.88704421       0.88704421
C        0.48960938      -2.20604127       1.10706817
C        1.26936300      -3.04001664       1.90639163
C        2.44614154      -2.55519245       2.48535191
Br       3.45636777      -3.75137710       3.56268704
C        2.86370865      -1.22878929       2.27546906
N        4.06106262      -0.75712788       2.87223005
C        4.43553777       0.47273333       2.66951202
C        5.70011199       0.99832043       3.29004594
O        6.42801135       0.31585407       3.98952558
N        5.94298240       2.30494914       2.98686851
H        6.77885262       2.72199656       3.36724258
H       -0.42372906      -2.59464876       0.66212143
H        0.95384100      -4.06757584       2.07412294
