114
Properties=species:S:1:pos:R:3 pbc="F F F"
O       -3.22506623       6.67911399      -2.57660652
C       -2.08915362       6.27412231      -2.80136575
N       -1.63342691       5.08741175      -2.29655853
C       -0.43858131       4.65518548      -2.54025370
N        0.01802877       3.46986460      -2.03649954
H       -0.58937283       2.90669230      -1.45526681
C        1.31854664       3.01432313      -2.31037065
C        1.79694823       1.79694823      -1.79694823
C        3.09169313       1.36118572      -2.07955204
C        3.92493512       2.13978032      -2.88076789
C        3.46354602       3.35359526      -3.39925669
C        2.16174110       3.81003698      -3.12590100
N        1.71356456       5.04450603      -3.66206203
C        0.50634171       5.45475844      -3.40092838
C        0.00601878       6.75925971      -3.95627108
O        0.68299070       7.47847574      -4.66992849
N       -1.27294406       7.04585277      -3.58170514
H       -1.67471703       7.90586245      -3.92266529
H        3.46192399       0.41880519      -1.68202403
H        4.93356893       1.79434896      -3.09733396
C        4.36796016       4.11600505      -4.22045483
C        5.12540700       4.75452325      -4.90820827
Br       6.35013448       5.78695317      -6.02024742
O        3.30585222      -6.55725846      -2.77924803
C        2.15754729      -6.17139809      -2.97248363
N        1.68839104      -5.00486325      -2.43407116
C        0.48023331      -4.59261589      -2.64447529
N        0.01020045      -3.42746707      -2.10712629
H        0.61795742      -2.86374532      -1.52679839
C       -1.30468296      -2.99349024      -2.34506722
C       -1.79694823      -1.79694823      -1.79694823
C       -3.10584068      -1.38244536      -2.04414486
C       -3.93952811      -2.16171261      -2.84424262
C       -3.46444530      -3.35494564      -3.39700703
C       -2.14826779      -3.78978524      -3.15962605
N       -1.68633893      -5.00357879      -3.73021490
C       -0.46589383      -5.39395900      -3.50217571
C        0.04918301      -6.67628646      -4.09444613
O       -0.62769156      -7.39474053      -4.80896284
N        1.34117816      -6.94387491      -3.75191710
H        1.75316852      -7.78828717      -4.11869206
H       -3.48680185      -0.45619128      -1.61976007
H       -4.95922982      -1.83291826      -3.03310378
C       -4.37001706      -4.11910324      -4.21529974
C       -5.12843340      -4.75908523      -4.90061989
Br      -6.35472849      -5.79388197      -6.00872461
O       -6.49899350      -3.34093076       2.87259154
C       -6.11521731      -2.19137105       3.06248818
N       -4.95963345      -1.71562173       2.50653165
C       -4.55856022      -0.50073660       2.69903425
N       -3.40425547      -0.02417505       2.14431248
H       -2.84048668      -0.63196034       1.56405995
C       -2.98226234       1.29792318       2.36305490
C       -1.79694823       1.79694823       1.79694823
C       -1.39390019       3.11273708       2.02579363
C       -2.17347682       3.94661077       2.82539575
C       -3.35568884       3.46489275       3.39581639
C       -3.77895879       2.14174971       3.17697058
N       -4.98176992       1.67320885       3.76515384
C       -5.36149140       0.44634664       3.55419048
C       -6.63191966      -0.07589414       4.16552405
O       -7.35990542       0.60671900       4.86477052
N       -6.87991586      -1.37968484       3.85438283
H       -7.71985886      -1.79436593       4.22831778
H       -0.47630421       3.49891089       1.58753810
H       -1.85356309       4.97165908       3.00002969
C       -4.12065507       4.37095134       4.21281362
C       -4.76131429       5.12977542       4.89704881
Br      -5.79720607       6.35672977       6.00339923
O        6.47242569       3.35621995       2.91444853
C        6.09275308       2.20424117       3.09782252
N        4.94158055       1.72596385       2.53492667
C        4.54487877       0.50857626       2.72055536
N        3.39498355       0.02948689       2.15889625
H        2.83109702       0.63734169       1.57883096
C        2.97770809      -1.29531263       2.37021970
C        1.79694823      -1.79694823       1.79694823
C        1.39854770      -3.11540112       2.01848208
C        2.17827087      -3.94935923       2.81785324
C        3.35598420      -3.46506192       3.39535186
C        3.77453243      -2.13921174       3.18393491
N        4.97282526      -1.66807964       3.77922772
C        5.34820299      -0.43872713       3.57509841
C        6.61378435       0.08629237       4.19405760
O        7.34169864      -0.59619901       4.89349728
N        6.85753654       1.39243981       3.88951712
H        7.69410747       1.80908581       4.26878905
H        0.48447679      -3.50359580       1.57468061
H        1.86199331      -4.97649254       2.98676600
C        4.12133124      -4.37133989       4.21174892
C        4.76230939      -5.13034768       4.89548145
Br       5.79871684      -6.35759909       6.00101913
C       -0.00445707       0.01189536      -1.78238275
H       -0.66409135       0.67374010      -2.43557963
H        0.65740317      -0.63156657      -2.45157240
C       -0.90989263      -0.90692880      -0.91072765
C        0.90977584       0.90977584      -0.90977584
C       -0.00465871       1.77757030       0.00794375
H       -0.66225468       2.44313916      -0.64384735
H        0.64322798       2.43503045       0.67728295
C       -1.78241447       0.00034974      -0.00472694
H       -2.45427497      -0.65498947       0.64260836
H       -2.43311707       0.67328779      -0.65473579
C       -0.91132561       0.90220522       0.91563759
C       -0.01476271      -0.02253852       1.78660255
H       -0.67934791      -0.69751639       2.42135241
H        0.63392994       0.61504881       2.47327442
C        0.01484550      -1.77751727      -0.01636693
H        0.67870853      -2.42144646      -0.68295456
H       -0.62264859      -2.45592969       0.64226336
C        1.78714474       0.01002794       0.00389507
H        2.44202412       0.67113390       0.66197326
H        2.45385902      -0.65136977      -0.64189061
C        0.91606151      -0.90478549       0.90901405
