133
Properties=species:S:1:pos:R:3 pbc="F F F"
C        0.00000000       0.00000000       0.00000000
C        2.89914084       4.52391970      -3.73267437
O        3.34353462       3.25053852      -3.27951099
C        2.49155076       2.51693990      -2.50227410
C        1.18210248       2.89549721      -2.18790350
C        0.37958863       2.08068649      -1.38046372
C        0.88127492       0.88127492      -0.88127492
C        2.17951536       0.48426443      -1.17946239
C        2.97464947       1.30252273      -1.99343035
S        4.63247902       0.79090233      -2.33780615
O        5.53537409       1.81864145      -1.85085455
O        4.79318323      -0.60145364      -1.95145298
N        4.75093841       0.77349873      -4.07425735
N        3.71367208       0.40778516      -4.89194746
C        4.24959401       0.38132042      -6.11724679
C        3.40443389       0.04579157      -7.29060908
C        5.62496803       0.67869527      -6.07724343
C        5.95421874       0.88703181      -4.75757228
C        7.25899701       1.18208559      -4.11376596
H        2.67688825       5.18702293      -2.89019747
H        2.03662904       4.42525701      -4.39954117
H        3.71352029       4.97580951      -4.30697874
H        0.74876082       3.82103111      -2.55475733
H       -0.63574621       2.39390106      -1.14786587
H        2.56947261      -0.45178708      -0.78554516
H        3.31838557       0.90923975      -7.95776188
H        2.39425663      -0.24843364      -6.98679570
H        3.83833153      -0.78717666      -7.85306377
H        7.45907181       0.49100441      -3.28902219
H        7.28167265       2.20955289      -3.73777027
H        8.08647846       1.07921775      -4.82267588
C        6.49581531       0.71704983      -7.22343448
C        7.22514992       0.74917178      -8.18336949
Br       8.40442228       0.80111025      -9.73550321
C       -3.46204480      -3.06532824      -4.62836187
O       -3.29546119      -3.33650405      -3.24161889
C       -2.49811014      -2.49449769      -2.51815694
C       -1.89893542      -1.33806814      -3.02849963
C       -1.09350484      -0.53408626      -2.21314773
C       -0.88127492      -0.88127492      -0.88127492
C       -1.46550882      -2.02594693      -0.35178643
C       -2.27542842      -2.82238608      -1.17278805
S       -2.98681409      -4.28881059      -0.48556282
O       -2.52009475      -5.42559401      -1.25918132
O       -2.85209903      -4.25268928       0.96160575
N       -4.69827093      -4.13669685      -0.76372672
N       -5.36148209      -2.93839994      -0.71352267
C       -6.65286013      -3.26807453      -0.82722656
C       -7.69175410      -2.20781208      -0.84126836
C       -6.81674682      -4.66433994      -0.89981996
C       -5.56199541      -5.22256941      -0.81425802
C       -5.12674176      -6.64164352      -0.78646327
H       -2.50241823      -3.09703895      -5.15465146
H       -3.96958287      -2.10794375      -4.78390060
H       -4.09825386      -3.85086104      -5.04719364
H       -2.03654098      -1.02804021      -4.05996806
H       -0.63676360       0.36074761      -2.63000472
H       -1.29538068      -2.29603431       0.68818429
H       -8.19324615      -2.17841126      -1.81372980
H       -7.25912083      -1.21929620      -0.65420166
H       -8.44325547      -2.39373429      -0.06722888
H       -4.46645053      -6.83689958       0.06425170
H       -4.60917981      -6.90612203      -1.71369396
H       -5.98049204      -7.31941065      -0.68846940
C       -8.08177975      -5.34320746      -1.01131241
C       -9.14124483      -5.91175901      -1.10468734
Br     -10.85431026      -6.83105878      -1.25566670
C       -4.34799638       2.80137422       4.00636431
O       -3.24699474       3.34156522       3.28502417
C       -2.51227048       2.48895581       2.50953847
C       -2.81578164       1.13780181       2.31191974
C       -2.00345590       0.33666895       1.50061399
C       -0.88127492       0.88127492       0.88127492
C       -0.55904516       2.22107357       1.06312344
C       -1.38061590       3.01804852       1.87193814
S       -0.93660607       4.71345158       2.11112985
O       -0.73775127       4.93468639       3.53243243
O        0.07926500       5.08338134       1.13906621
N       -2.34206212       5.62264281       1.63398957
N       -3.16389356       5.24533591       0.60417523
C       -4.01423714       6.26853025       0.46539382
C       -5.08956784       6.20743311      -0.55616642
C       -3.70881939       7.30891178       1.36317555
C       -2.60620288       6.90962098       2.08299898
C       -1.81695835       7.61181755       3.12607266
H       -4.01877684       2.02765389       4.70767792
H       -5.11572830       2.42034758       3.32535134
H       -4.79398490       3.61247413       4.58984951
H       -3.68018417       0.67048735       2.77387775
H       -2.25723672      -0.71169526       1.36047925
H        0.31988427       2.64277552       0.58033944
H       -6.07223048       6.18763635      -0.07447963
H       -5.00073125       5.31139734      -1.17950990
H       -5.04330255       7.07852852      -1.21761243
H       -0.74874595       7.60230761       2.88804485
H       -1.97290347       7.15015846       4.10593388
H       -2.11411925       8.66160867       3.21264418
C       -4.42338949       8.55555520       1.45735494
C       -5.02184195       9.59961906       1.53623017
Br      -5.98948896      11.28778203       1.66376476
C        3.42395496      -4.63726759       3.09451236
O        3.31843462      -3.23624751       3.31890200
C        2.50044828      -2.51761026       2.49270623
C        1.69715827      -3.07567680       1.49266812
C        0.89025398      -2.26066947       0.68981538
C        0.88127492      -0.88127492       0.88127492
C        1.67139768      -0.30364791       1.86819659
C        2.47189112      -1.12685345       2.67185800
S        3.48966069      -0.36799312       3.90353369
O        4.87294676      -0.70906503       3.62285829
O        3.07314198       1.01328743       4.08332800
N        3.05340375      -1.14831029       5.39698046
N        1.77587194      -1.55186803       5.68566473
C        1.83415102      -1.95388066       6.96012954
C        0.62177239      -2.49428864       7.62477351
C        3.12234082      -1.76360268       7.49496322
C        3.89285694      -1.20451642       6.50144948
C        5.30449737      -0.74490253       6.50544864
H        3.81288549      -4.84825336       2.09296980
H        2.46386788      -5.13594924       3.26161011
H        4.13762687      -5.03798790       3.82069377
H        1.67154373      -4.14530744       1.30769808
H        0.27342605      -2.71495605      -0.08236139
H        1.66440747       0.77446581       2.01328904
H        0.76187530      -3.55124585       7.87226605
H       -0.25977792      -2.41218246       6.98021415
H        0.41083430      -1.94527547       8.54810886
H        5.38853778       0.27984334       6.13040397
H        5.92842077      -1.40524450       5.89533054
H        5.72289527      -0.74869766       7.51677917
C        3.51167738      -2.07984020       8.84478205
C        3.83774675      -2.34468912       9.97525532
Br       4.36497333      -2.77292742      11.80313499
