186
Properties=species:S:1:pos:R:3 pbc="F F F"
C        1.79119922       1.79119922      -1.79119922
C        2.23004190       3.02446374      -1.31930416
C        3.04078462       3.82699189      -2.12839962
C        3.41697383       3.40415087      -3.41135853
C        2.96238143       2.16624065      -3.87186879
C        2.15313444       1.35901971      -3.06344161
N        4.23871292       4.27543799      -4.16003538
C        4.75051217       4.05876209      -5.42687273
O        4.61674279       3.04919221      -6.10764119
C        5.57152820       5.17165564      -5.99330632
C        6.57796771       4.83963916      -6.93566089
C        7.36877509       5.82818031      -7.53354074
C        7.12278756       7.13847627      -7.17280500
C        6.14404523       7.46684127      -6.26420760
C        5.34256709       6.51364749      -5.65673505
C        6.13188077       8.91892966      -6.13263311
O        5.36176880       9.45110933      -5.35291505
N        7.08918548       9.42065406      -6.99319156
C        7.35500349      10.81127186      -7.20637966
C        6.64248386      11.81151188      -6.52140345
C        6.87602729      13.17492092      -6.75237738
C        7.83409430      13.56664242      -7.67688287
C        8.56305175      12.60626592      -8.36432266
C        8.32465365      11.24443982      -8.12795620
C        7.73723267       8.37981251      -7.63287058
O        8.64943200       8.35357611      -8.43937629
H        1.94942998       3.37044366      -0.32799937
H        3.37010589       4.78641962      -1.73762978
H        3.21972537       1.79251202      -4.85798111
H        1.81520575       0.39755969      -3.44167682
H        4.51214085       5.12165346      -3.67993131
H        6.73559151       3.79577748      -7.21002363
H        8.13409142       5.57775160      -8.26212565
H        4.55122134       6.82781983      -4.98457893
H        5.87684046      11.57408555      -5.78900054
H        6.29680275      13.91447738      -6.20498290
H        9.31737453      12.89607583      -9.09194984
H        8.92546394      10.54602664      -8.70319909
C        8.06791424      14.96563025      -7.92540105
C        8.26373844      16.13728255      -8.13353503
Br       8.58036961      18.03174524      -8.47007008
C       -1.79119922      -1.79119922      -1.79119922
C       -1.22439607      -2.83867622      -2.51073751
C       -2.03610256      -3.64631558      -3.31375799
C       -3.41588267      -3.41300710      -3.40359345
C       -3.96745665      -2.35335885      -2.67967538
C       -3.15832457      -1.54475804      -1.87251314
N       -4.16103490      -4.27739460      -4.23575679
C       -5.52669894      -4.25417709      -4.45527097
O       -6.34000721      -3.50406077      -3.92950822
C       -6.04647517      -5.27573644      -5.41427854
C       -7.38416927      -5.71761765      -5.25148085
C       -7.95345424      -6.65018286      -6.12685904
C       -7.16091485      -7.11520068      -7.15795329
C       -5.86512376      -6.68561389      -7.32435644
C       -5.27281945      -5.76211272      -6.47801746
C       -5.32896632      -7.34571007      -8.50876715
O       -4.17518914      -7.14564956      -8.84495448
N       -6.33512597      -8.13245641      -9.03544871
C       -6.23176578      -8.90341447     -10.23747475
C       -5.04891364      -8.92903643     -10.99744912
C       -4.95450558      -9.65549328     -12.19332673
C       -6.04724170     -10.37653500     -12.65384288
C       -7.22786157     -10.38158418     -11.92419456
C       -7.31510025      -9.65323198     -10.72871744
C       -7.46297429      -8.04723168      -8.23970978
O       -8.55561486      -8.58111917      -8.30565037
H       -0.15710799      -3.03591489      -2.45485014
H       -1.56972032      -4.45772810      -3.86670688
H       -5.02818188      -2.12568888      -2.71634774
H       -3.61085487      -0.72873453      -1.31485285
H       -3.62676983      -5.01758711      -4.66936868
H       -7.98774785      -5.31821312      -4.43543166
H       -8.98030658      -6.98362816      -6.01003393
H       -4.26436789      -5.41796921      -6.68128301
H       -4.15932049      -8.38390202     -10.69670404
H       -4.02219488      -9.64155622     -12.75251193
H       -8.09334797     -10.94126069     -12.27079154
H       -8.26869817      -9.69546847     -10.21052303
C       -5.95765634     -11.11366753     -13.88762167
C       -5.88262859     -11.73101603     -14.92091140
Br      -5.76131508     -12.72921633     -16.59165351
C       -1.79119922       1.79119922       1.79119922
C       -2.80495046       1.21692169       2.55193765
C       -3.60744014       2.02748689       3.36124910
C       -3.40345580       3.41376589       3.41526154
C       -2.38555693       3.97459246       2.64034147
C       -1.57843175       3.16578742       1.83137658
N       -4.25765981       4.15666123       4.25986525
C       -4.22556495       5.52035785       4.49022419
O       -3.41846245       6.32103670       4.03407704
C       -5.27450344       6.04620191       5.41578481
C       -4.97884407       7.22044050       6.15398320
C       -5.91979030       7.79158289       7.01912295
C       -7.14832807       7.16825662       7.11748413
C       -7.44276487       6.03292538       6.39940384
C       -6.53568125       5.44425956       5.53300882
C       -8.81554167       5.65471392       6.71318795
O       -9.29733433       4.65205067       6.21640818
N       -9.31400859       6.59698440       7.59203811
C      -10.65185794       6.61926001       8.10153705
C      -11.59421133       5.63957609       7.74161178
C      -12.91510735       5.67690906       8.21130919
C      -13.32086819       6.69977187       9.05697952
C      -12.41459268       7.67842178       9.44062585
C      -11.09492823       7.63461242       8.96750901
C       -8.33416717       7.52656562       7.88918297
O       -8.32074582       8.49791030       8.62372828
H       -2.97938586       0.14457989       2.52390726
H       -4.39323211       1.55542656       3.94549663
H       -2.18731023       5.04183855       2.64106973
H       -0.78954392       3.62433160       1.24056674
H       -4.92539257       3.60633746       4.78199558
H       -4.00397436       7.69648311       6.04093515
H       -5.69943579       8.69570080       7.57883208
H       -6.83364661       4.57811370       4.95185979
H      -11.34409524       4.81536560       7.08046571
H      -13.61230863       4.90220254       7.90175185
H      -12.71609101       8.48669012      10.10261907
H      -10.43945014       8.43358117       9.30165835
C      -14.67963385       6.74795433       9.53135736
C      -15.81760009       6.78830714       9.92864880
Br     -17.65759526       6.85355422      10.57103545
C        1.79119922      -1.79119922       1.79119922
C        1.81500653      -1.59083385       3.16796941
C        2.62068582      -2.40324198       3.97224833
C        3.40649618      -3.41821335       3.40777369
C        3.37559150      -3.60153327       2.02336611
C        2.56794299      -2.79206030       1.21559246
N        4.18860216      -4.19281947       4.29276465
C        5.01326201      -5.25497320       3.96791178
O        5.17682750      -5.74121548       2.85553321
C        5.74945575      -5.87690030       5.11013410
C        6.10362230      -7.24599316       5.00365230
C        6.81966806      -7.89278450       6.01804359
C        7.17208750      -7.14055137       7.12142996
C        6.83673366      -5.81102819       7.22733224
C        6.13149184      -5.14059470       6.24086309
C        7.37791070      -5.31743962       8.48809321
O        7.18160634      -4.16231787       8.82186897
N        8.04984082      -6.36469945       9.08849083
C        8.77377777      -6.27817116      10.32070607
C        8.84989322      -5.07724413      11.04826184
C        9.58614502      -4.97932982      12.23785075
C       10.26276427      -6.08796762      12.72688769
C       10.20173930      -7.29223972      12.03966130
C        9.46305472      -7.38317702      10.85081792
C        7.93613221      -7.50274400       8.31103954
O        8.33962790      -8.64206025       8.46069625
H        1.21350104      -0.80946812       3.62490385
H        2.62273788      -2.22658236       5.04483507
H        3.96710953      -4.36901797       1.53409100
H        2.55690119      -2.95643543       0.14110564
H        4.08087383      -3.96208028       5.27077151
H        5.82306391      -7.80702900       4.11129971
H        7.10004216      -8.93863446       5.93529205
H        5.93492135      -4.07931718       6.34938157
H        8.34838844      -4.17203310      10.71950501
H        9.62313038      -4.02879069      12.76434196
H       10.72592338      -8.17043117      12.40904566
H        9.46168944      -8.35238284      10.36061738
C       11.02966719      -5.98772551      13.94155284
C       11.67194838      -5.90377274      14.95883491
Br      12.71046275      -5.76802821      16.60369397
C       -0.00445707       0.01189536      -1.78238275
H       -0.66409135       0.67374010      -2.43557963
H        0.65740317      -0.63156657      -2.45157240
C       -0.90989263      -0.90692880      -0.91072765
C        0.90977584       0.90977584      -0.90977584
C       -0.00465871       1.77757030       0.00794375
H       -0.66225468       2.44313916      -0.64384735
H        0.64322798       2.43503045       0.67728295
C       -1.78241447       0.00034974      -0.00472694
H       -2.45427497      -0.65498947       0.64260836
H       -2.43311707       0.67328779      -0.65473579
C       -0.91132561       0.90220522       0.91563759
C       -0.01476271      -0.02253852       1.78660255
H       -0.67934791      -0.69751639       2.42135241
H        0.63392994       0.61504881       2.47327442
C        0.01484550      -1.77751727      -0.01636693
H        0.67870853      -2.42144646      -0.68295456
H       -0.62264859      -2.45592969       0.64226336
C        1.78714474       0.01002794       0.00389507
H        2.44202412       0.67113390       0.66197326
H        2.45385902      -0.65136977      -0.64189061
C        0.91606151      -0.90478549       0.90901405
