157
Properties=species:S:1:pos:R:3 pbc="F F F"
C        0.00000000       0.00000000       0.00000000
C        0.88129519       0.88129519      -0.88129519
C        1.32013787       2.11455972      -0.40940013
C        2.13088059       2.91708786      -1.21849560
C        2.50706981       2.49424684      -2.50145451
C        2.05247741       1.25633662      -2.96196477
C        1.24323041       0.44911568      -2.15353759
N        3.32880890       3.36553396      -3.25013136
C        3.84060815       3.14885807      -4.51696871
O        3.70683877       2.13928818      -5.19773717
C        4.66162418       4.26175161      -5.08340229
C        5.66806369       3.92973513      -6.02575687
C        6.45887107       4.91827629      -6.62363671
C        6.21288354       6.22857224      -6.26290097
C        5.23414120       6.55693724      -5.35430357
C        4.43266307       5.60374347      -4.74683102
C        5.22197674       8.00902563      -5.22272909
O        4.45186478       8.54120531      -4.44301102
N        6.17928146       8.51075003      -6.08328754
C        6.44509946       9.90136784      -6.29647563
C        5.73257984      10.90160785      -5.61149943
C        5.96612327      12.26501689      -5.84247336
C        6.92419027      12.65673839      -6.76697884
Br       7.23077229      14.49107515      -7.09283303
C        7.65314772      11.69636189      -7.45441863
C        7.41474962      10.33453580      -7.21805218
C        6.82732865       7.46990848      -6.72296656
O        7.73952798       7.44367209      -7.52947226
H        1.03952595       2.46053964       0.58190466
H        2.46020187       3.87651560      -0.82772576
H        2.30982135       0.88260800      -3.94807708
H        0.90530173      -0.51234434      -2.53177280
H        3.60223682       4.21174944      -2.77002728
H        5.82568748       2.88587346      -6.30011961
H        7.22418740       4.66784758      -7.35222163
H        3.64131732       5.91791580      -4.07467491
H        4.96693644      10.66418152      -4.87909652
H        5.38689872      13.00457336      -5.29507887
H        8.40747050      11.98617181      -8.18204582
H        8.01555991       9.63612261      -7.79329506
C       -0.88129519      -0.88129519      -0.88129519
C       -1.58548188      -0.31773238      -1.94088346
C       -2.38854153      -1.12948210      -2.74844043
C       -2.49371768      -2.50606723      -2.50298624
C       -1.78512137      -3.05432761      -1.43132981
C       -0.97795395      -2.24518200      -0.62274773
N       -3.32474781      -3.25153433      -3.36819207
C       -3.55747364      -4.61478250      -3.33417878
O       -3.04658726      -5.42583266      -2.57144420
C       -4.51170577      -5.13519424      -4.35987807
C       -4.35749791      -6.47851486      -4.78754293
C       -5.22941985      -7.04837225      -5.72299197
C       -6.24848099      -6.25060321      -6.20527255
C       -6.40657722      -4.94926494      -5.78953986
C       -5.56338699      -4.35620257      -4.86364800
C       -7.57954269      -4.40826649      -6.46592229
O       -7.90659463      -3.24951386      -6.27997261
N       -8.10833824      -5.41686096      -7.24811983
C       -9.30199487      -5.30951089      -8.03143717
C      -10.05038867      -4.11983646      -8.07546199
C      -11.23840274      -4.02107173      -8.81413905
C      -11.70248388      -5.11623331      -9.52919031
Br     -13.30981352      -4.99272137     -10.51214558
C      -10.98410265      -6.30368170      -9.51614390
C       -9.79643862      -6.39525584      -8.77564313
C       -7.32422155      -6.55130617      -7.14467597
O       -7.39552811      -7.64831307      -7.66883115
H       -1.51756866       0.74705291      -2.14764519
H       -2.92933863      -0.66565422      -3.56945038
H       -1.83404599      -4.11244205      -1.19401839
H       -0.43235739      -2.69515973       0.20278694
H       -3.74624405      -2.72027745      -4.11749204
H       -3.55104276      -7.08593561      -4.37470217
H       -5.11924212      -8.07941198      -6.04560250
H       -5.76027368      -3.34264418      -4.53099017
H       -9.74633956      -3.22796769      -7.53590723
H      -11.78878599      -3.08343438      -8.81433059
H      -11.33363260      -7.17115168     -10.07090385
H       -9.28697820      -7.35406127      -8.80393812
C       -0.88129519       0.88129519       0.88129519
C       -0.63492099       0.96069282       2.24848391
C       -1.44218603       1.77258626       3.05169177
C       -2.49873518       2.50816015       2.49587583
C       -2.73610194       2.41195321       1.12272365
C       -1.92810747       1.60251831       0.31525790
N       -3.26221476       3.30370981       3.37854965
C       -4.32588285       4.12653993       3.05401215
O       -4.76661792       4.34508962       1.93215658
C       -4.97154717       4.83405309       4.20117782
C       -5.60639684       6.07537106       3.94178779
C       -6.25887930       6.78454051       4.95736426
C       -6.26427227       6.22155606       6.21852842
C       -5.65563483       5.01518999       6.47455720
C       -5.00418316       4.28701333       5.49204107
C       -5.86905696       4.70211934       7.88255516
O       -5.39179693       3.68678663       8.35749755
N       -6.62834419       5.72199317       8.42298167
C       -7.10477724       5.76573048       9.77243520
C       -6.81576938       4.74001700      10.68990074
C       -7.30889400       4.76214434      12.00257518
C       -8.10357601       5.81810156      12.42622994
Br      -8.78286782       5.84409131      14.18772135
C       -8.40111367       6.85264106      11.55017352
C       -7.90411390       6.82433312      10.23889058
C       -6.87672175       6.68322723       7.46025470
O       -7.47037978       7.74601601       7.49627653
H        0.17885300       0.39834469       2.69866924
H       -1.23018809       1.81733594       4.11691920
H       -3.54282498       2.95606141       0.64162003
H       -2.12927367       1.54702359      -0.75156708
H       -2.94910519       3.29550571       4.33940264
H       -5.59682407       6.48425215       2.93060433
H       -6.75356136       7.73086479       4.75983044
H       -4.58301210       3.31703239       5.73386354
H       -6.20436190       3.88352326      10.42232932
H       -7.06590351       3.94423204      12.67641541
H       -9.02222281       7.68744555      11.86601976
H       -8.17920464       7.66163436       9.60413860
C        0.88129519      -0.88129519       0.88129519
C        2.25418081      -0.93002556       0.65989135
C        3.05856664      -1.73557776       1.47231965
C        2.49805493      -2.49642971       2.50828651
C        1.11737449      -2.44074852       2.71265579
C        0.30957198      -1.63312648       1.90318522
N        3.38290169      -3.28028210       3.28129043
C        3.06209413      -4.08303341       4.36130738
O        1.95514120      -4.22135990       4.86736302
C        4.20240643      -4.82743929       4.97693237
C        4.11211264      -5.15848659       6.35295646
C        5.12533340      -5.88033724       6.99511343
C        6.21103898      -6.26187284       6.23144493
C        6.30108679      -5.94900750       4.89528774
C        5.31523838      -5.23876896       4.22923022
C        7.54528158      -6.51771407       4.39073581
O        7.86374082      -6.34475381       3.22758648
N        8.15164127      -7.18265956       5.43901820
C        9.37089496      -7.92728238       5.34476559
C       10.07806424      -8.03362542       4.13399746
C       11.25432979      -8.79006246       4.02922126
C       11.75025530      -9.45697528       5.14067693
Br      13.32475781     -10.48955463       5.00036804
C       11.08322315      -9.36630556       6.35439954
C        9.90763037      -8.60755693       6.45215029
C        7.39417899      -7.03892280       6.58710189
O        7.55555220      -7.42692615       7.73019397
H        2.70800523      -0.34808764      -0.13793193
H        4.12805857      -1.75737104       1.27901362
H        0.63115326      -3.01240565       3.49694752
H       -0.76187396      -1.60250710       2.08409704
H        4.35869216      -3.19166730       3.03365408
H        3.23324019      -4.85511753       6.92332282
H        5.05479503      -6.14302579       8.04643577
H        5.40998642      -5.06051193       3.16340967
H        9.74287090      -7.54115072       3.22619285
H       11.76505985      -8.85019688       3.07129422
H       11.45825245      -9.88251867       7.23491700
H        9.43292231      -8.58331753       7.42873775
