161
Properties=species:S:1:pos:R:3 pbc="F F F"
C        0.00000000       0.00000000       0.00000000
C        0.88116095       0.88116095      -0.88116095
C        2.17915958       0.48426435      -1.18024144
C        2.99235017       1.29531736      -1.98204330
C        2.52057798       2.50735123      -2.51428811
C        1.20581608       2.88900481      -2.17234765
C        0.39022766       2.08470245      -1.36963464
C        3.37037968       3.44256880      -3.38333337
O        3.41578512       4.67512622      -2.63832900
C        4.83132581       3.01336157      -3.62902050
C        4.95414670       1.91587180      -4.68785035
N        4.32011025       2.25057210      -5.96841648
C        2.90802512       2.60894823      -5.75541889
C        2.70746803       3.74262669      -4.74734547
C        5.03326335       3.26607510      -6.75892439
C        6.46455056       2.89110330      -7.08892807
C        7.52576635       3.70957130      -6.66836584
C        8.84656049       3.35662305      -6.94769567
C        9.11282395       2.18573283      -7.65017820
F       10.39107134       1.86529310      -7.89918825
C        8.07327084       1.36607026      -8.08142635
Br       8.43605955      -0.22891882      -9.03031745
C        6.75002692       1.71696681      -7.80625791
H        2.57713255      -0.44808466      -0.78808708
H        4.00639642       0.95045371      -2.15901754
H        0.81229910       3.84601734      -2.51171563
H       -0.61457859       2.41730032      -1.12477495
H        3.95158773       5.31272824      -3.13708053
H        5.31267608       2.69809079      -2.69529214
H        5.41799511       3.88401222      -3.95298726
H        6.01073630       1.65820851      -4.82166233
H        4.49771607       0.98716557      -4.32775180
H        2.44273346       2.88216766      -6.71064079
H        2.36532097       1.71795318      -5.41455350
H        3.11966427       4.67527281      -5.15524780
H        1.63533469       3.94700264      -4.64214540
H        5.02022830       4.24243598      -6.26128718
H        4.51741542       3.40728134      -7.71827622
H        7.33041842       4.62476159      -6.11111509
H        9.66983854       3.98234611      -6.61881513
H        5.93294347       1.07343784      -8.12793095
C       -0.88116095      -0.88116095      -0.88116095
C       -0.43415120      -2.13796465      -1.27154951
C       -1.23775236      -2.94502954      -2.08692893
C       -2.50805841      -2.52115931      -2.51299961
C       -2.92017995      -1.23144324      -2.11554535
C       -2.12075128      -0.41986118      -1.30395228
C       -3.42311677      -3.35438937      -3.41877572
O       -3.60381879      -2.53512937      -4.59029217
C       -2.86415656      -4.70867357      -3.90087775
C       -2.93800640      -5.79438049      -2.82548196
N       -4.28149736      -5.98960862      -2.26799285
C       -4.80574931      -4.71387977      -1.75276317
C       -4.81620823      -3.58999319      -2.79123878
C       -5.23238053      -6.64964174      -3.17624057
C       -4.77720897      -8.01500167      -3.65237128
C       -4.61196211      -8.26756616      -5.02417522
C       -4.16939627      -9.51469122      -5.46679172
C       -3.89208227     -10.51550856      -4.54114414
F       -3.46089534     -11.70271751      -4.99193984
C       -4.05727845     -10.28554707      -3.17794192
Br      -3.67363401     -11.64410747      -1.91971670
C       -4.50245582      -9.03980558      -2.73099025
H        0.54196470      -2.49995956      -0.95914010
H       -0.82632280      -3.90435605      -2.38518883
H       -3.87111309      -0.83292876      -2.46599022
H       -2.47226496       0.56939555      -1.02462728
H       -4.17363760      -3.01521160      -5.21254730
H       -1.83557129      -4.60365202      -4.26683571
H       -3.42948254      -5.04435431      -4.78115774
H       -2.53337961      -6.73016046      -3.22706708
H       -2.26864845      -5.55114409      -1.99284090
H       -5.81951239      -4.85734335      -1.35868616
H       -4.20142776      -4.40683221      -0.88956767
H       -5.53735757      -3.82833097      -3.58449634
H       -5.21486836      -2.67756888      -2.33204549
H       -5.45913349      -6.02040026      -4.04441771
H       -6.18663356      -6.80214941      -2.65419001
H       -4.81854904      -7.48971913      -5.75802692
H       -4.03375601      -9.71209945      -6.52514432
H       -4.62012256      -8.84845417      -1.66573553
C       -0.88116095       0.88116095       0.88116095
C       -0.57698046       2.22819399       1.03849092
C       -1.37958795       3.03691803       1.85320485
C       -2.50934750       2.52163374       2.51123608
C       -2.77538361       1.14572568       2.34605925
C       -1.97572510       0.33259324       1.53624640
C       -3.41360405       3.35506120       3.42761661
O       -3.32158527       2.69994319       4.70771188
C       -3.00219273       4.82541898       3.64609617
C       -3.37069526       5.72355350       2.46362009
N       -4.78826166       5.66220823       2.08862894
C       -5.18135206       4.26848231       1.82255787
C       -4.89466728       3.31674325       2.98602967
C       -5.70197970       6.32153072       3.03475241
C       -5.39476544       7.78865260       3.26116388
C       -5.09483744       8.25838665       4.55047941
C       -4.78694308       9.60300827       4.76092787
C       -4.77944687      10.48455138       3.68473672
F       -4.47289718      11.77014475       3.91251076
C       -5.08153947      10.03825655       2.40097142
Br      -5.06451367      11.23557655       0.93736796
C       -5.39275077       8.69402444       2.18647643
H        0.28773313       2.66193704       0.54293106
H       -1.07848212       4.07410630       1.96327924
H       -3.60519780       0.68493780       2.87989647
H       -2.21125843      -0.72354716       1.43978542
H       -3.87157887       3.18941269       5.34040494
H       -1.93116013       4.90707246       3.86782642
H       -3.49374824       5.21159773       4.54964863
H       -3.05964682       6.75190951       2.67905081
H       -2.78455580       5.44829484       1.57978280
H       -6.24705812       4.22230995       1.56617383
H       -4.65355943       3.91786360       0.92640462
H       -5.53591411       3.57482827       3.83944250
H       -5.21062460       2.30362150       2.71023663
H       -5.72162224       5.80251977       3.99980945
H       -6.72694093       6.27307084       2.64296121
H       -5.09005042       7.57649391       5.39975077
H       -4.54792485       9.96895396       5.75412098
H       -5.61590412       8.33529989       1.18310825
C        0.88116095      -0.88116095       0.88116095
C        2.14303606      -0.43949553       1.26113377
C        2.95665102      -1.24999924       2.06306057
C        2.52022623      -2.50707511       2.51491598
C        1.24287254      -2.93222431       2.09207170
C        0.42723591      -2.12852288       1.28880595
C        3.37329115      -3.44303576       3.37995495
O        3.51312871      -4.63444906       2.58166256
C        4.79865010      -2.95897517       3.71608261
C        4.81867062      -1.90978881       4.82940941
N        4.14294376      -2.33545444       6.06070064
C        2.76137230      -2.74816787       5.76285207
C        2.66319749      -3.83953712       4.69470559
C        4.86721924      -3.35403716       6.83700643
C        6.26171352      -2.92956780       7.25330061
C        7.37986320      -3.67648751       6.84735278
C        8.66753692      -3.27665245       7.20668985
C        8.84363634      -2.13023843       7.97486021
F       10.09184794      -1.76333700       8.30036775
C        7.74654643      -1.38164178       8.39257923
Br       7.98688595       0.18040049       9.43097271
C        6.45613559      -1.77974591       8.03737013
H        2.51293766       0.52828819       0.93248549
H        3.94341284      -0.86748143       2.30497339
H        0.88106582      -3.92184064       2.36712561
H       -0.54775418      -2.49507096       0.98017990
H        4.05560342      -5.27001800       3.07577508
H        5.30689055      -2.57665453       2.82251393
H        5.41132455      -3.81620125       4.02746879
H        5.85412484      -1.61020022       5.02628209
H        4.33479173      -0.98683822       4.49100349
H        2.26611092      -3.08883307       6.68059792
H        2.19235765      -1.86778150       5.43768850
H        3.10091598      -4.77079683       5.07847208
H        1.60831453      -4.08807221       4.52809599
H        4.92480676      -4.30458075       6.29456395
H        4.31490113      -3.56553428       7.76253757
H        7.25533968      -4.57155649       6.23939893
H        9.53465552      -3.84676297       6.88958129
H        5.59466559      -1.19123170       8.34841497
