165
Properties=species:S:1:pos:R:3 pbc="F F F"
C        0.00000000       0.00000000       0.00000000
C        0.88102249       0.88102249      -0.88102249
C        1.84017046       0.29713575      -1.70487964
C        2.66191328       1.10861974      -2.49103149
C        2.53403314       2.50501561      -2.44643828
C        1.54871021       3.07989388      -1.63424028
C        0.72701781       2.26633973      -0.84685146
C        3.50554067       3.32199729      -3.23489445
O        4.01657471       2.82417035      -4.23841360
C        3.86114193       4.71861902      -2.75076900
S        5.65585793       4.91817083      -2.54303765
C        6.00395586       3.75369781      -1.25895146
N        4.97249869       3.15908080      -0.72472984
C        5.27858079       2.31663863       0.27558169
N        4.39873277       1.53767938       0.96640423
H        3.39568649       1.46486980       0.83827775
N        4.99665519       0.79226506       1.92173383
C        6.29251259       1.11735220       1.81278556
C        6.50978085       2.06316399       0.80443878
C        7.65683777       2.73447145       0.26685647
O        8.77643682       2.53641273       0.73442133
N        7.34592163       3.58316201      -0.82563823
C        8.44630995       4.27550931      -1.42398915
C        8.74235233       4.13014145      -2.78683814
C        9.82328736       4.81378748      -3.35281917
C       10.61508073       5.63958130      -2.55712010
C       10.34692751       5.77755459      -1.19784100
C        9.27215329       5.08821192      -0.63144374
H        1.96320354      -0.78286065      -1.73947284
H        3.42070613       0.64835401      -3.12249483
H        1.39575822       4.15455557      -1.59518975
H       -0.02864415       2.72256070      -0.21075877
H        3.38107172       4.98078306      -1.80699533
H        3.50940384       5.43058735      -3.50436823
H        7.01416388       0.64985566       2.47063144
H        8.15198711       3.47172301      -3.42086117
H       10.03936060       4.69206861      -4.41129742
H       10.96519982       6.41367499      -0.57006749
H        9.07751564       5.20741787       0.43221507
C       11.72112340       6.35245254      -3.14199975
C       12.64743414       6.94948220      -3.63183646
Br      14.14520026       7.91482866      -4.42386098
C       -0.88102249      -0.88102249      -0.88102249
C       -0.85648774      -0.72136875      -2.26432936
C       -1.68325440      -1.51254356      -3.06576654
C       -2.54388471      -2.45628813      -2.48531417
C       -2.54107845      -2.62643519      -1.09533073
C       -1.71337750      -1.83303886      -0.29379263
C       -3.47338313      -3.20274253      -3.38630674
O       -3.14762275      -3.36961342      -4.56192250
C       -4.80296756      -3.69243012      -2.83513228
S       -6.20163033      -3.08871472      -3.82672137
C       -6.08532092      -1.34030230      -3.59098190
N       -5.17937078      -0.93156579      -2.74537277
C       -5.15516769       0.39897323      -2.56344327
N       -4.27957623       1.08553995      -1.77597164
H       -3.51968434       0.71430156      -1.21689576
N       -4.49961328       2.41868893      -1.78626207
C       -5.54387035       2.56129703      -2.61450592
C       -5.98318388       1.33094377      -3.11626595
C       -7.01620499       0.90737734      -4.01562511
O       -7.78634344       1.72434178      -4.51642656
N       -7.01062390      -0.49039907      -4.25369891
C       -8.00630691      -0.98406296      -5.15543853
C       -7.65244789      -1.69712409      -6.30975995
C       -8.64015179      -2.16989026      -7.17985196
C       -9.98377824      -1.92592789      -6.90207599
C      -10.35010831      -1.20102124      -5.77119356
C       -9.36285191      -0.72212652      -4.90683053
H       -0.20691108       0.01651284      -2.72941748
H       -1.67171372      -1.37380792      -4.14603333
H       -3.16863991      -3.36776177      -0.60910185
H       -1.72585164      -1.96494810       0.78612442
H       -4.97233122      -3.39797688      -1.79854201
H       -4.79198325      -4.78672361      -2.86565256
H       -5.93251956       3.55208682      -2.81295536
H       -6.60858049      -1.87772414      -6.55826666
H       -8.35020895      -2.72244082      -8.07007686
H      -11.39562898      -1.00042147      -5.55289184
H       -9.66713531      -0.15730162      -4.02828151
C      -11.00140474      -2.42240680      -7.79176414
C      -11.85366693      -2.83820789      -8.53687797
Br     -13.23170281      -3.51052309      -9.74166400
C       -0.88102249       0.88102249       0.88102249
C       -0.30944315       1.91677250       1.61597019
C       -1.11555646       2.70508788       2.44092016
C       -2.49187954       2.45227344       2.54133404
C       -3.06002336       1.42503485       1.77778616
C       -2.25168368       0.63579766       0.95272765
C       -3.28345278       3.26563725       3.51334238
O       -2.88497973       4.39505606       3.79912287
C       -4.52544458       2.65881207       4.14627331
S       -4.44497472       2.71065569       5.96143600
C       -3.05687781       1.66690446       6.29282286
N       -2.53090774       1.06271015       5.26269145
C       -1.50812612       0.24634826       5.56516335
N       -0.75668124      -0.46224864       4.67557533
H       -0.84142063      -0.48470027       3.66555819
N        0.20363310      -1.20187736       5.27269688
C        0.04397320      -0.93564951       6.57670194
C       -1.01032270      -0.04316934       6.80135271
C       -1.59618901       0.57209649       7.95616725
O       -1.17734161       0.31749302       9.08359359
N       -2.64022621       1.47703006       7.63746560
C       -3.26254528       2.14155832       8.74170481
C       -3.29445229       3.54097059       8.82390905
C       -3.90580604       4.17195399       9.91213397
C       -4.48135204       3.40618924      10.92424084
C       -4.43899583       2.01565390      10.86767337
C       -3.82116969       1.38600303       9.78463623
H        0.75827959       2.11619758       1.56189774
H       -0.66180080       3.50439979       3.02535439
H       -4.12587835       1.21726942       1.80235576
H       -2.70033103      -0.16700306       0.37134736
H       -4.69857928       1.62461769       3.84565315
H       -5.38799744       3.24432153       3.81204044
H        0.70241512      -1.40245425       7.29825747
H       -2.82995302       4.15757046       8.05704781
H       -3.92383819       5.25784634       9.96104210
H       -4.87888541       1.41257324      11.65748364
H       -3.79696236       0.29875219       9.75700388
C       -5.12086555       4.05564878      12.03906136
C       -5.65645810       4.59957114      12.97272355
Br      -6.52246597       5.47904760      14.48237633
C        0.88102249      -0.88102249       0.88102249
C        2.23237276      -1.03062135       0.57919174
C        3.03005457      -1.85813790       1.37337204
C        2.47602732      -2.54615953       2.46330017
C        1.12206613      -2.36770948       2.77306875
C        0.32412700      -1.53948500       1.97659699
C        3.35650895      -3.49110374       3.21481972
O        4.57056018      -3.28602423       3.22257425
C        2.73181463      -4.69226273       3.90645260
S        3.50014876      -6.24904548       3.36787217
C        3.07993885      -6.28580297       1.65086330
N        2.29024595      -5.33595003       1.23011335
C        1.96139748      -5.42718541      -0.06894515
N        1.19441634      -4.54232670      -0.76673511
H        0.76179863      -3.68979550      -0.42931559
N        1.03028688      -4.89708581      -2.06018627
C        1.72590390      -6.03794300      -2.16676767
C        2.31701848      -6.40358834      -0.95210076
C        3.14854144      -7.48362384      -0.50771254
O        3.47176159      -8.38516132      -1.27849469
N        3.54357250      -7.36248272       0.84866664
C        4.38924406      -8.39873238       1.35783196
C        5.64732513      -8.10768345       1.90432334
C        6.46015635      -9.13457768       2.39515997
C        6.02065559     -10.45566958       2.33545696
C        4.78311506     -10.76292185       1.77628619
C        3.97520174      -9.73774815       1.27885906
H        2.67428608      -0.51700855      -0.27147890
H        4.08298647      -1.98392933       1.12463918
H        0.66190136      -2.85680670       3.62679546
H       -0.72933204      -1.41535298       2.21865438
H        1.65659379      -4.77164789       3.74060843
H        2.88772366      -4.57313558       4.98350017
H        1.76949101      -6.54579758      -3.12190049
H        6.02007389      -7.08595997       1.93853744
H        7.43244177      -8.89300662       2.81727825
H        4.43776929     -11.79176147       1.71941153
H        3.01159247      -9.99607419       0.84505179
C        6.85249724     -11.51194450       2.85113394
C        7.54916463     -12.39657475       3.28301341
Br       8.67561688     -13.82694703       3.98132599
