197
Properties=species:S:1:pos:R:3 pbc="F F F"
C        0.00000000       0.00000000       0.00000000
C        0.88135574       0.88135574      -0.88135574
C        1.71015719       1.83537966      -0.29706776
C        2.52131049       2.63807995      -1.10403063
C        2.52693521       2.47469418      -2.49628136
C        1.66509464       1.52723204      -3.07076613
C        0.84748230       0.72950451      -2.26515890
N        3.37916241       3.28344324      -3.31446642
C        4.30147608       2.72948415      -4.23803420
S        4.56738175       0.98418897      -4.24167875
C        6.29975486       0.96460978      -3.71324609
C        6.43496167       1.51756100      -2.30883306
N        6.65610405       2.77418025      -2.14498385
C        6.76898245       3.27679187      -0.77874011
C        7.70984249       4.48850513      -0.83052169
C        7.95235633       5.13952119       0.53399287
C        7.56267501       4.23368315       1.69688257
C        7.88311338       2.77259285       1.40760474
N        7.23684541       2.29052544       0.18443785
C        6.86807123       0.96977577       0.10671857
O        7.01105066       0.13149953       0.98735319
C        6.32893329       0.58377912      -1.18920075
H        6.01622059      -0.43894584      -1.33542694
N        5.04534191       3.40739899      -5.06868230
C        4.89761400       4.73931714      -4.94944536
N        5.56897933       5.68739011      -5.66168900
H        6.26823053       5.54502546      -6.38171705
N        5.22346478       6.94922918      -5.31665298
C        4.31521917       6.77403976      -4.34721496
C        4.09408010       5.41762809      -4.07873003
C        3.26436928       4.68596749      -3.16605316
O        2.53538079       5.27088540      -2.37039448
H        1.73106572       1.96600395       0.78225724
H        3.15865778       3.38054275      -0.62829166
H        1.60193869       1.41130131      -4.15103977
H        0.18752727      -0.00077582      -2.72730116
H        6.92449646       1.54135706      -4.40275354
H        6.65694504      -0.07009676      -3.73408065
H        5.77641138       3.60727530      -0.44711711
H        7.32698320       5.24008572      -1.53267126
H        8.67967546       4.16785403      -1.23715204
H        9.00938564       5.43241261       0.58805096
H        7.38305766       6.07609841       0.60189169
H        6.49380542       4.34531535       1.91156051
H        7.58923453       2.14103463       2.25422446
H        8.96245535       2.62945227       1.26673795
H        3.86069396       7.64009773      -3.88243035
C        8.23752021       4.66110421       2.89500410
C        8.80270307       5.01906935       3.89843087
Br       9.71655594       5.59786871       5.52088711
C       -0.88135574      -0.88135574      -0.88135574
C       -1.77807022      -0.29442556      -1.77010882
C       -2.58061443      -1.10172338      -2.58108326
C       -2.47353739      -2.49835883      -2.52601452
C       -1.58426155      -3.07391099      -1.60492027
C       -0.78698796      -2.26751246      -0.78764528
N       -3.28097894      -3.31828630      -3.37780682
C       -2.72939189      -4.29919696      -4.24040557
S       -0.97665945      -4.38137770      -4.43521232
C       -0.86846058      -3.92455347      -6.18459668
C       -1.35852842      -2.50633439      -6.39649292
N       -2.59795933      -2.30286812      -6.67444070
C       -3.04017675      -0.92381127      -6.86052641
C       -4.21553041      -0.96646975      -7.84686914
C       -4.80095319       0.41138586      -8.16831731
C       -3.86467618       1.55300996      -7.78780938
C       -2.40512781       1.19448080      -8.03745449
N       -1.99835877      -0.01936825      -7.32520598
C       -0.69715185      -0.13336432      -6.90061226
O        0.18095262       0.70754449      -7.04369411
C       -0.38508152      -1.42044945      -6.29638218
H        0.61797815      -1.59353396      -5.93714588
N       -3.41091789      -5.13227043      -4.97823487
C       -4.74166090      -4.95551280      -4.88920280
N       -5.69095094      -5.65694363      -5.57016387
H       -5.55074941      -6.40963103      -6.23459259
N       -6.95028189      -5.24947024      -5.28959480
C       -6.77146658      -4.25165336      -4.41335395
C       -5.41492649      -4.02734180      -4.14816993
C       -4.67975850      -3.11098670      -3.32564475
O       -5.25991577      -2.26439500      -2.65234989
H       -1.86405408       0.78743122      -1.83818957
H       -3.27792457      -0.62365152      -3.26591609
H       -1.51462756      -4.15443666      -1.49521556
H       -0.10216978      -2.73062204      -0.08126079
H       -1.44790095      -4.61582340      -6.80488272
H        0.17765171      -3.99998426      -6.49859638
H       -3.39529316      -0.53975578      -5.89575486
H       -5.00917974      -1.62284664      -7.46771381
H       -3.87414567      -1.42411372      -8.78642213
H       -5.05013959       0.43401439      -9.23762209
H       -5.75542749       0.53856787      -7.64040475
H       -4.00897580       1.81488690      -6.73347136
H       -1.75176056       2.02711444      -7.75139858
H       -2.22597935       1.00465178      -9.10384209
H       -7.63503337      -3.73558767      -4.01260099
C       -4.21678700       2.73857534      -8.52540867
C       -4.51167981       3.73148634      -9.14314808
Br      -4.98849654       5.33693945     -10.14198045
C       -0.88135574       0.88135574       0.88135574
C       -2.21302657       1.09430329       0.53527474
C       -3.02119665       1.89653664       1.34568777
C       -2.50997728       2.46939671       2.51853675
C       -1.15812246       2.26702614       2.83794421
C       -0.34686009       1.47148597       2.02379966
N       -3.35074336       3.26941163       3.35691707
C       -3.52411247       3.00562292       4.73925903
S       -2.85176973       1.52179380       5.41968593
C       -4.39875935       0.69945916       5.87939222
C       -5.22450321       0.38980490       4.64704762
N       -6.09039764       1.24812818       4.23674233
C       -6.86079916       0.92430383       3.03941145
C       -8.21544001       1.63208234       3.18134696
C       -9.16476403       1.38812557       2.00499505
C       -8.75377685       0.19145811       1.15424063
C       -8.18056722      -0.93602947       2.00356375
N       -7.03629157      -0.50239050       2.80903192
C       -6.04598242      -1.41003597       3.09518199
O       -6.00968332      -2.57489392       2.72040760
C       -5.01391820      -0.89558864       3.98358360
H       -4.19849003      -1.54635398       4.26056564
N       -4.20755401       3.74047599       5.57339319
C       -4.80123243       4.79664462       4.98849945
N       -5.60019398       5.71117585       5.60668861
H       -5.86623767       5.74440844       6.58432692
N       -6.06955074       6.65801481       4.76178138
C       -5.55203316       6.30802646       3.57641427
C       -4.76996737       5.15026344       3.67020741
C       -4.01577040       4.35730419       2.74331536
O       -3.97373738       4.65072617       1.55219710
H       -2.63166485       0.64552830      -0.36238071
H       -4.05793742       2.05398531       1.05556945
H       -0.71267807       2.74123000       3.71037171
H        0.69764962       1.32396563       2.28773659
H       -4.97902733       1.31845932       6.57112042
H       -4.15476204      -0.23281270       6.39897959
H       -6.33358252       1.33044119       2.16678008
H       -8.07044279       2.71133201       3.31796538
H       -8.70604143       1.27895195       4.09968814
H      -10.17980419       1.26749899       2.40644410
H       -9.20312931       2.28360075       1.37053431
H       -8.01789376       0.50468797       0.40497852
H       -7.88733035      -1.78163141       1.37034576
H       -8.93184247      -1.31527078       2.70859798
H       -5.77030904       6.90988252       2.70303048
C       -9.88552879      -0.28229581       0.40038735
C      -10.83337104      -0.67906472      -0.23096477
Br     -12.36595179      -1.32060650      -1.25180776
C        0.88135574      -0.88135574       0.88135574
C        0.71112541      -0.86834264       2.26313656
C        1.51431278      -1.67986066       3.06924763
C        2.47410283      -2.52649242       2.49731550
C        2.65134245      -2.50680149       1.10494887
C        1.85409531      -1.68954885       0.29850155
N        3.27590045      -3.37351455       3.32765706
C        3.36212471      -4.77518212       3.13168760
S        2.28909812      -5.54446634       1.95968500
C        1.31617564      -6.56299891       3.09843618
C        0.52239661      -5.68980650       4.04915262
N        1.03912226      -5.35693434       5.17921155
C        0.25294323      -4.50479729       6.06677391
C        0.67413968      -4.85373734       7.50099228
C       -0.06861630      -4.05262819       8.57387276
C       -1.33645163      -3.39189202       8.04403521
C       -2.04972652      -4.27227659       7.02555142
N       -1.18730335      -4.63273082       5.89750553
C       -1.75774495      -4.82576929       4.66310409
O       -2.94624267      -4.70651130       4.39492836
C       -0.82049402      -5.27744732       3.64495986
H       -1.18825819      -5.45515351       2.64580637
N        4.13431071      -5.58963593       3.79747655
C        4.84710870      -4.97832573       4.76094207
N        5.70632008      -5.58315364       5.62858472
H        5.94411226      -6.56705713       5.68380365
N        6.27252913      -4.71676805       6.50004977
C        5.73358594      -3.53615237       6.16673558
C        4.83290148      -3.65625088       5.10128586
C        3.99596034      -2.74770852       4.37272108
O        3.96146542      -1.55491859       4.66027666
H       -0.03888650      -0.22985195       2.72384698
H        1.36839885      -1.65201280       4.14708053
H        3.42410149      -3.10907508       0.63110320
H        2.00395079      -1.68861836      -0.77851653
H        1.96274728      -7.24002333       3.66583646
H        0.62946930      -7.18076329       2.51069633
H        0.51102629      -3.45801457       5.86176293
H        1.75610212      -4.71826005       7.62537801
H        0.48580147      -5.92264303       7.67623703
H       -0.28619683      -4.72742838       9.41251574
H        0.59558341      -3.27937979       8.98230117
H       -1.08916410      -2.42459787       7.59212649
H       -2.95361924      -3.77448020       6.65518374
H       -2.37416647      -5.21586594       7.48347020
H        6.02005588      -2.64764557       6.71552058
C       -2.22015933      -3.08499552       9.13878414
C       -2.96026454      -2.82796970      10.05563638
Br      -4.15695205      -2.41238069      11.53810890
