53
Properties=species:S:1:pos:R:3 pbc="F F F"
C        0.00000000       0.00000000       0.00000000
C        0.88239250       0.88239250      -0.88239250
C        0.62969101       2.24945082      -0.96165121
C        1.43781478       3.05768449      -1.76661905
C        2.47621737       2.50646849      -2.52669005
N        3.34295561       3.36963361      -3.21850964
C        2.74448341       1.13261349      -2.38640608
Br       4.19434348       0.32323751      -3.31367101
C        1.94121393       0.31663486      -1.58518346
H       -0.18023083       2.69956509      -0.39346995
H        1.25190300       4.12893725      -1.79167298
H        2.89997165       4.21354613      -3.56795943
H        3.88936267       2.89099374      -3.93126257
H        2.14728132      -0.74665493      -1.50417592
C       -0.88239250      -0.88239250      -0.88239250
C       -0.67718471      -2.25949319      -0.90411513
C       -1.48542376      -3.06761138      -1.70908318
C       -2.47554345      -2.50827409      -2.52555837
N       -3.34831820      -3.36505104      -3.21772962
C       -2.69819888      -1.12160643      -2.44369768
Br      -4.08391541      -0.29604597      -3.45129061
C       -1.89439275      -0.30571900      -1.64292050
H        0.09520944      -2.71681669      -0.29119696
H       -1.33801976      -4.14495234      -1.68954113
H       -2.92442785      -4.23626440      -3.52078497
H       -3.85139787      -2.89381317      -3.96640795
H       -2.06419013       0.76642483      -1.60703700
C       -0.88239250       0.88239250       0.88239250
C       -2.12929931       0.41825867       1.29323506
C       -2.93602703       1.22373238       2.10235891
C       -2.52508757       2.50898163       2.47530671
N       -3.30643454       3.23174329       3.39292104
C       -1.23911037       2.93188751       2.09250510
Br      -0.56924590       4.62724802       2.63475807
C       -0.42626645       2.13413425       1.28263154
H       -2.47817217      -0.56981918       1.00445122
H       -3.89202642       0.83500757       2.44547923
H       -4.30402651       3.05919128       3.31825942
H       -3.08121604       4.22409961       3.40630334
H        0.55555354       2.48356521       0.97679064
C        0.88239250      -0.88239250       0.88239250
C        2.21962363      -0.54554828       1.07562113
C        3.02682422      -1.35075773       1.88453637
C        2.52027307      -2.51516019       2.47394265
N        3.32699985      -3.22268544       3.38141357
C        1.15329875      -2.80283668       2.30736755
Br       0.36619917      -4.31553866       3.14951416
C        0.33906305      -2.00448404       1.49948516
H        2.64118363       0.34492539       0.61654596
H        4.05978347      -1.05681964       2.05591012
H        4.31871654      -3.19665822       3.16610245
H        2.98934331      -4.16680758       3.55546810
H       -0.70958711      -2.25184995       1.36253947
