82
Properties=species:S:1:pos:R:3 pbc="F F F"
C        1.79229653       1.79229653      -1.79229653
C        1.53959504       3.15935484      -1.87155523
C        2.34771880       3.96758851      -2.67652308
C        3.38612139       3.41637251      -3.43659408
N        4.25285964       4.27953763      -4.12841367
C        3.65438744       2.04251752      -3.29631010
C        2.85111796       1.22653888      -2.49508748
H        0.72967320       3.60946912      -1.30337397
H        2.16180702       5.03884128      -2.70157700
H        3.80987568       5.12345015      -4.47786346
H        4.79926669       3.80089777      -4.84116660
H        3.05718534       0.16324909      -2.41407994
C        4.75216434       1.42968992      -3.99839856
C        5.67155250       0.91644681      -4.58639765
Br       7.15812539       0.08657611      -5.53714244
C       -1.79229653      -1.79229653      -1.79229653
C       -1.62659319      -3.17468526      -1.76922666
C       -2.43492095      -3.98270866      -2.57420079
C       -3.38498700      -3.41960223      -3.43449875
N       -4.26238905      -4.27115307      -4.12726881
C       -3.56954151      -2.02541792      -3.39825562
C       -2.76529952      -1.20962825      -2.59781655
H       -0.88537665      -3.63562857      -1.12151106
H       -2.31944153      -5.06275640      -2.52002738
H       -3.85557561      -5.16239469      -4.39321899
H       -4.73028068      -3.80783732      -4.90321305
H       -2.90486726      -0.13253423      -2.59711288
C       -4.57825232      -1.39340103      -4.20859948
C       -5.42304762      -0.86408689      -4.88726245
Br      -6.78901017      -0.00823068      -5.98460308
C       -1.79229653       1.79229653       1.79229653
C       -3.05304985       1.34205285       2.17540241
C       -3.85983687       2.14748837       2.98450515
C       -3.43443715       3.41969016       3.38496067
N       -4.21895239       4.14027657       4.30158198
C       -2.13574465       3.82762757       3.02984284
C       -1.32270667       3.02982259       2.22021507
H       -3.41299706       0.36457727       1.86494195
H       -4.82744043       1.76896955       3.30581533
H       -5.21783633       3.98526961       4.20808334
H       -3.97805854       5.12847724       4.33479528
H       -0.33053008       3.36803671       1.93594759
C       -1.61475499       5.09606313       3.46943470
C       -1.17842616       6.15837792       3.83759288
Br      -0.47291934       7.87605108       4.43287352
C        1.79229653      -1.79229653       1.79229653
C        3.13929779      -1.47810374       1.95310358
C        3.94657036      -2.28328094       2.76197909
C        3.42936626      -3.42595788       3.38376384
N        4.23997951      -4.13158157       4.28924986
C        2.05410246      -3.68990479       3.24920780
C        1.23968574      -2.89142387       2.44163471
H        3.56882824      -0.60507562       1.46861242
H        4.98815999      -2.00642736       2.90763795
H        5.22759691      -4.12917084       4.05442153
H        3.88769468      -5.06537035       4.48826603
H        0.18398317      -3.12075228       2.32977893
C        1.44883567      -4.81086175       3.92055540
C        0.94192473      -5.74966320       4.48280903
Br       0.12229261      -7.26762574       5.39192558
C       -0.00445707       0.01189536      -1.78238275
H       -0.66409135       0.67374010      -2.43557963
H        0.65740317      -0.63156657      -2.45157240
C       -0.90989263      -0.90692880      -0.91072765
C        0.90977584       0.90977584      -0.90977584
C       -0.00465871       1.77757030       0.00794375
H       -0.66225468       2.44313916      -0.64384735
H        0.64322798       2.43503045       0.67728295
C       -1.78241447       0.00034974      -0.00472694
H       -2.45427497      -0.65498947       0.64260836
H       -2.43311707       0.67328779      -0.65473579
C       -0.91132561       0.90220522       0.91563759
C       -0.01476271      -0.02253852       1.78660255
H       -0.67934791      -0.69751639       2.42135241
H        0.63392994       0.61504881       2.47327442
C        0.01484550      -1.77751727      -0.01636693
H        0.67870853      -2.42144646      -0.68295456
H       -0.62264859      -2.45592969       0.64226336
C        1.78714474       0.01002794       0.00389507
H        2.44202412       0.67113390       0.66197326
H        2.45385902      -0.65136977      -0.64189061
C        0.91606151      -0.90478549       0.90901405
