61
Properties=species:S:1:pos:R:3 pbc="F F F"
C        0.00000000       0.00000000       0.00000000
C        0.88239250       0.88239250      -0.88239250
C        0.62969101       2.24945082      -0.96165121
C        1.43781478       3.05768449      -1.76661905
C        2.47621737       2.50646849      -2.52669005
N        3.34295561       3.36963361      -3.21850964
C        2.74448341       1.13261349      -2.38640608
C        1.94121393       0.31663486      -1.58518346
H       -0.18023083       2.69956509      -0.39346995
H        1.25190300       4.12893725      -1.79167298
H        2.89997165       4.21354613      -3.56795943
H        3.88936267       2.89099374      -3.93126257
H        2.14728132      -0.74665493      -1.50417592
C        3.84226032       0.51978590      -3.08849454
C        4.76164847       0.00654278      -3.67649363
Br       6.24822136      -0.82332792      -4.62723842
C       -0.88239250      -0.88239250      -0.88239250
C       -0.80571492      -2.26796783      -0.76711029
C       -1.61422212      -3.07578121      -1.57211500
C       -2.47433035      -2.51268606      -2.52235949
N       -3.36103870      -3.35270867      -3.21735149
C       -2.57255841      -1.11050841      -2.58043617
C       -1.76736413      -0.29500140      -1.78066672
H       -0.13465283      -2.73029892      -0.04785245
H       -1.57038613      -4.15521446      -1.44691264
H       -2.99611345      -4.28145129      -3.40391248
H       -3.75205573      -2.91227407      -4.04728919
H       -1.83863409       0.78637093      -1.85253914
C       -3.48971140      -0.47214249      -3.48868687
C       -4.25782703       0.06248898      -4.24934683
Br      -5.49980504       0.92694283      -5.47926965
C       -0.88239250       0.88239250       0.88239250
C       -2.17904694       0.47564976       1.18609634
C       -2.98600530       1.28098317       1.99512985
C       -2.52285112       2.51206199       2.47446280
N       -3.31654282       3.22679480       3.38776124
C       -1.19158807       2.87351777       2.19839714
C       -0.37802123       2.07552522       1.38948579
H       -2.56779875      -0.46853106       0.81353651
H       -3.98395380       0.93468420       2.25387523
H       -4.31585727       3.12382491       3.24179504
H       -3.03292751       4.19990887       3.47878261
H        0.64085914       2.37875888       1.16690256
C       -0.63508077       4.09452155       2.72093843
C       -0.16900591       5.11711221       3.15856676
Br       0.58459773       6.77055482       3.86617476
C        0.88239250      -0.88239250       0.88239250
C        2.24881856      -0.62726184       0.96471264
C        3.05626711      -1.43236914       1.77348208
C        2.51739213      -2.51818646       2.47379732
N        3.33753444      -3.21962925       3.37393518
C        1.12639232      -2.72058139       2.41652927
C        0.31156757      -1.92174522       1.60971946
H        2.69436637       0.20020456       0.41864240
H        4.11549846      -1.20027060       1.85674417
H        4.31153206      -3.27643775       3.09350741
H        2.95227159      -4.12479476       3.63455264
H       -0.75787789      -2.10416222       1.55851798
C        0.50309019      -3.77811469       3.16933587
C       -0.01892535      -4.66379883       3.79981139
Br      -0.86298031      -6.09587518       4.81923700
