174
Properties=species:S:1:pos:R:3 pbc="F F F"
C        1.79061392       1.79061392      -1.79061392
C        1.22515337       2.53143366      -2.82133854
C        2.03838508       3.31629405      -3.64991036
C        3.42156716       3.38804943      -3.46049019
C        3.96322968       2.64328719      -2.39159049
C        3.16164457       1.84331413      -1.57057810
C        4.32277196       4.12631384      -4.35779417
N        5.57118501       3.60218339      -4.65346722
H        5.90287878       2.69978344      -4.35316470
C        6.31676413       4.51230869      -5.35505887
N        5.56167750       5.54434542      -5.66467915
C        4.33461145       5.33669222      -5.05787681
C        3.33821172       6.39415473      -5.11102531
C        2.03536182       6.18466705      -5.57283284
C        1.11318228       7.23708271      -5.61602630
C        1.51513521       8.52421753      -5.26231216
Br       0.27690311       9.94838661      -5.33888680
C        2.83050563       8.76850645      -4.87762463
C        3.73533189       7.70431488      -4.80074832
C        7.72651292       4.32002688      -5.69694328
C        8.25362820       4.93875234      -6.83973018
C        9.59739508       4.77482639      -7.18826366
C       10.43480493       3.99996514      -6.38723773
C        9.92440606       3.39848242      -5.23917187
Cl      10.95860507       2.45812478      -4.23564422
C        8.58157974       3.55456269      -4.89051280
H        0.15335939       2.49854875      -3.00212080
H        1.55228138       3.83519904      -4.46248887
H        5.03052433       2.67326877      -2.17747765
H        3.61700295       1.26815988      -0.76861060
H        1.73090071       5.21423041      -5.94575951
H        0.09847998       7.04639420      -5.94664016
H        3.16511986       9.77289894      -4.64451515
H        4.76567300       7.90324191      -4.51643205
H        7.60970523       5.55322342      -7.46698729
H        9.98775058       5.25586695      -8.08022594
H       11.48003772       3.87678512      -6.65722318
H        8.22244125       3.09598239      -3.97515653
C       -1.79061392      -1.79061392      -1.79061392
C       -1.40824770      -2.07338899      -3.09628888
C       -2.23252085      -2.85685599      -3.91521265
C       -3.44085809      -3.38168580      -3.44756289
C       -3.79060543      -3.09676925      -2.11073269
C       -2.98282042      -2.30108376      -1.29163263
C       -4.37784610      -4.13281355      -4.29622032
N       -5.74214851      -3.95507271      -4.12961440
H       -6.16393579      -3.28673370      -3.50515743
C       -6.43719869      -4.86307763      -4.88385537
N       -5.59654126      -5.52225894      -5.65190186
C       -4.32454761      -5.09898809      -5.30564477
C       -3.17752865      -5.76742373      -5.89843938
C       -2.15665727      -5.07733484      -6.55886961
C       -1.07655715      -5.76564181      -7.12409233
C       -1.05081428      -7.15908650      -7.09176412
Br       0.39639205      -8.08933139      -7.87123718
C       -2.09855309      -7.86768757      -6.51039605
C       -3.15513098      -7.17089818      -5.91436591
C       -7.88959123      -5.03076017      -4.82313168
C       -8.58082439      -5.50311727      -5.94816905
C       -9.96765144      -5.67574777      -5.91708590
C      -10.67867686      -5.39100863      -4.75232231
C       -9.99743521      -4.94084410      -3.62378103
Cl     -10.86750298      -4.60780084      -2.17707025
C       -8.61322125      -4.76125564      -3.65217833
H       -0.47699687      -1.68004542      -3.49698665
H       -1.90849514      -3.00733775      -4.93413641
H       -4.70833653      -3.49363104      -1.67930318
H       -3.29430496      -2.08684811      -0.27262036
H       -2.20666782      -4.00222693      -6.68199588
H       -0.27898711      -5.20925947      -7.60326777
H       -2.11076689      -8.95160009      -6.52016698
H       -3.97922548      -7.72910972      -5.47701176
H       -8.03325263      -5.73677484      -6.85988847
H      -10.48807934      -6.03635776      -6.79940636
H      -11.75608647      -5.52955016      -4.72840939
H       -8.10959592      -4.43613538      -2.74784887
C       -1.79061392       1.79061392       1.79061392
C       -3.17442895       1.69139102       1.71210560
C       -3.98365077       2.52228727       2.49865145
C       -3.43277153       3.45399529       3.38333996
C       -2.02517400       3.51503411       3.45789925
C       -1.20959542       2.70213340       2.66380799
C       -4.24043605       4.40552229       4.16092163
N       -3.77360288       5.69548175       4.35775100
H       -2.93510478       6.07351093       3.94721121
C       -4.57691244       6.36360848       5.24361078
N       -5.63098744       5.62450187       5.51521276
C       -5.44581693       4.41373808       4.86962546
C       -6.39519547       3.33896637       5.10922992
C       -7.05241592       2.66456891       4.07587688
C       -7.96745063       1.64277407       4.35606659
C       -8.28217093       1.33962655       5.67986742
Br      -9.53119739      -0.02560194       6.05858108
C       -7.69936296       2.05526675       6.72200700
C       -6.75755927       3.04883679       6.43399902
C       -4.27794101       7.69599633       5.76954574
C       -5.32782584       8.53574647       6.16853841
C       -5.07096409       9.81212534       6.67739570
C       -3.75666905      10.25839027       6.80694848
C       -2.70693556       9.42296353       6.43216125
Cl      -1.08207522       9.96082775       6.60947109
C       -2.95903800       8.14976315       5.91785407
H       -3.63997810       0.98101295       1.03303789
H       -5.05138704       2.43414264       2.36443962
H       -1.53391579       4.20437636       4.14297859
H       -0.12863662       2.79073150       2.73440530
H       -6.89701238       2.95109054       3.04278771
H       -8.44174514       1.11025278       3.53951642
H       -7.97108096       1.85861669       7.75283631
H       -6.31828832       3.61641880       7.25063983
H       -6.35747834       8.19287268       6.07956492
H       -5.89615418      10.45202461       6.97566468
H       -3.55842117      11.24919115       7.20643370
H       -2.11834393       7.51355291       5.66168333
C        1.79061392      -1.79061392       1.79061392
C        3.16376690      -1.58168471       1.83247396
C        3.97645291      -2.41060548       2.61753110
C        3.43820870      -3.44984869       3.38204939
C        2.03861343      -3.62229370       3.33720023
C        1.22163854      -2.81112238       2.54277589
C        4.25982141      -4.39804815       4.14901042
N        3.88587915      -5.73114249       4.20981398
H        3.11407936      -6.13647315       3.70527441
C        4.67200496      -6.40680641       5.10532033
N        5.63915620      -5.61513510       5.51641077
C        5.40523853      -4.37326023       4.95068172
C        6.24346696      -3.25324874       5.34667606
C        6.91947172      -2.44967010       4.42371989
C        7.72482321      -1.38818724       4.85328084
C        7.91355136      -1.17082050       6.21729304
Br       9.01554010       0.24906801       6.79770444
C        7.31419316      -2.01051350       7.15193004
C        6.48053103      -3.04532023       6.71454382
C        4.44362226      -7.79620026       5.50366056
C        5.52532162      -8.58435625       5.92243285
C        5.33552203      -9.91353467       6.31142843
C        4.05582514     -10.46630073       6.29988192
C        2.97280942      -9.68439690       5.90485402
Cl       1.38830956     -10.35540625       5.90865825
C        3.15854651      -8.35829212       5.50981659
H        3.61974389      -0.78552799       1.24875706
H        5.04055186      -2.23190098       2.57751645
H        1.55492457      -4.39996320       3.92638298
H        0.14921311      -2.98610206       2.51845825
H        6.86589622      -2.66216701       3.36282741
H        8.21426873      -0.75696803       4.12027758
H        7.49084064      -1.87841647       8.21327685
H        6.02873587      -3.70876167       7.44784942
H        6.52747632      -8.15902270       5.94341692
H        6.18523387     -10.51175978       6.62684982
H        3.90929137     -11.49836587       6.60638878
H        2.29056367      -7.76831832       5.23469818
C       -0.00445707       0.01189536      -1.78238275
H       -0.66409135       0.67374010      -2.43557963
H        0.65740317      -0.63156657      -2.45157240
C       -0.90989263      -0.90692880      -0.91072765
C        0.90977584       0.90977584      -0.90977584
C       -0.00465871       1.77757030       0.00794375
H       -0.66225468       2.44313916      -0.64384735
H        0.64322798       2.43503045       0.67728295
C       -1.78241447       0.00034974      -0.00472694
H       -2.45427497      -0.65498947       0.64260836
H       -2.43311707       0.67328779      -0.65473579
C       -0.91132561       0.90220522       0.91563759
C       -0.01476271      -0.02253852       1.78660255
H       -0.67934791      -0.69751639       2.42135241
H        0.63392994       0.61504881       2.47327442
C        0.01484550      -1.77751727      -0.01636693
H        0.67870853      -2.42144646      -0.68295456
H       -0.62264859      -2.45592969       0.64226336
C        1.78714474       0.01002794       0.00389507
H        2.44202412       0.67113390       0.66197326
H        2.45385902      -0.65136977      -0.64189061
C        0.91606151      -0.90478549       0.90901405
