182
Properties=species:S:1:pos:R:3 pbc="F F F"
C        1.79061392       1.79061392      -1.79061392
C        1.22515337       2.53143366      -2.82133854
C        2.03838508       3.31629405      -3.64991036
C        3.42156716       3.38804943      -3.46049019
C        3.96322968       2.64328719      -2.39159049
C        3.16164457       1.84331413      -1.57057810
C        4.32277196       4.12631384      -4.35779417
N        5.57118501       3.60218339      -4.65346722
H        5.90287878       2.69978344      -4.35316470
C        6.31676413       4.51230869      -5.35505887
N        5.56167750       5.54434542      -5.66467915
C        4.33461145       5.33669222      -5.05787681
C        3.33821172       6.39415473      -5.11102531
C        2.03536182       6.18466705      -5.57283284
C        1.11318228       7.23708271      -5.61602630
C        1.51513521       8.52421753      -5.26231216
C        2.83050563       8.76850645      -4.87762463
C        3.73533189       7.70431488      -4.80074832
C        7.72651292       4.32002688      -5.69694328
C        8.25362820       4.93875234      -6.83973018
C        9.59739508       4.77482639      -7.18826366
C       10.43480493       3.99996514      -6.38723773
C        9.92440606       3.39848242      -5.23917187
Cl      10.95860507       2.45812478      -4.23564422
C        8.58157974       3.55456269      -4.89051280
H        0.15335939       2.49854875      -3.00212080
H        1.55228138       3.83519904      -4.46248887
H        5.03052433       2.67326877      -2.17747765
H        3.61700295       1.26815988      -0.76861060
H        1.73090071       5.21423041      -5.94575951
H        0.09847998       7.04639420      -5.94664016
H        3.16511986       9.77289894      -4.64451515
H        4.76567300       7.90324191      -4.51643205
H        7.60970523       5.55322342      -7.46698729
H        9.98775058       5.25586695      -8.08022594
H       11.48003772       3.87678512      -6.65722318
H        8.22244125       3.09598239      -3.97515653
C        0.57109107       9.61002242      -5.32069365
C       -0.21954589      10.51938402      -5.36958816
Br      -1.49793899      11.98974482      -5.44864643
C       -1.79061392      -1.79061392      -1.79061392
C       -1.51484013      -1.91633925      -3.14674619
C       -2.34224028      -2.70064802      -3.96170119
C       -3.44681589      -3.38161162      -3.44167927
C       -3.68738612      -3.25334278      -2.05737847
C       -2.87740412      -2.45856278      -1.23956991
C       -4.39175067      -4.14230043      -4.27282887
N       -5.74343823      -4.11533754      -3.96805985
H       -6.15985191      -3.55036481      -3.24561020
C       -6.42524771      -5.01614947      -4.74273451
N       -5.60864084      -5.51796280      -5.64409843
C       -4.35177350      -5.00426151      -5.37314547
C       -3.21345140      -5.50078426      -6.12915611
C       -2.32844533      -4.65722193      -6.80719446
C       -1.25195416      -5.18249438      -7.53184274
C       -1.09849872      -6.56391023      -7.63925596
C       -2.01625752      -7.42138586      -7.03899333
C       -3.06716285      -6.88814953      -6.28508270
C       -7.84373671      -5.33072894      -4.56901743
C       -8.59726353      -5.76619225      -5.66865493
C       -9.95324435      -6.07656863      -5.53067215
C      -10.56880010      -5.96862856      -4.28457913
C       -9.82284412      -5.55645763      -3.18275860
Cl     -10.57260242      -5.44154025      -1.63823139
C       -8.46981177      -5.23968283      -3.31716063
H       -0.66652516      -1.39895933      -3.58854445
H       -2.10790957      -2.72667219      -5.01538754
H       -4.51896181      -3.77563047      -1.58667846
H       -3.10500455      -2.36812513      -0.18064374
H       -2.48638773      -3.58557153      -6.81893137
H       -0.55845290      -4.50965643      -8.02340502
H       -1.93227825      -8.49598827      -7.15426743
H       -3.79090520      -7.56166667      -5.83277508
H       -8.12337585      -5.86224863      -6.64429146
H      -10.52360036      -6.40619820      -6.39404490
H      -11.62187243      -6.21412282      -4.17805077
H       -7.91076518      -4.94885176      -2.43396323
C        0.00006761      -7.10502855      -8.39684621
C        0.92011691      -7.55821515      -9.03132804
Br       2.40775880      -8.29097955     -10.05723151
C       -1.79061392       1.79061392       1.79061392
C       -3.17149540       1.63672446       1.76970571
C       -3.98240765       2.46670799       2.55547385
C       -3.43544522       3.45204350       3.38261806
C       -2.02947975       3.56854057       3.40008705
C       -1.21320152       2.75647094       2.60586435
C       -4.24982539       4.40219209       4.15486249
N       -3.82643686       5.71538398       4.28501478
H       -3.01920518       6.10827264       3.82834910
C       -4.62140556       6.38691535       5.17581079
N       -5.63506584       5.62001235       5.51562387
C       -5.42726262       4.39284983       4.90906803
C       -6.32453186       3.29344298       5.22541693
C       -6.99324034       2.55528885       4.24433253
C       -7.85675636       1.51164347       4.59789146
C       -8.10972294       1.24860780       5.94333416
C       -7.51659265       2.02550276       6.93454130
C       -6.62554224       3.04166187       6.57319097
C       -4.35497332       7.74898410       5.63952566
C       -5.42103836       8.56374670       6.04732566
C       -5.19511678       9.86764928       6.49771906
C       -3.89523075      10.36745885       6.55931819
C       -2.82857946       9.55794831       6.17553258
Cl      -1.22035340      10.16269603       6.26932464
C       -3.05007601       8.25718582       5.71939339
H       -3.63416171       0.88357875       1.13628848
H       -5.05018449       2.33353866       2.46624614
H       -1.54009950       4.30187631       4.03929494
H       -0.13461845       2.88811562       2.63103935
H       -6.88783877       2.80706069       3.19599118
H       -8.34020914       0.93042602       3.82087918
H       -7.74171626       1.85903323       7.98178446
H       -6.17842110       3.65658251       7.35034334
H       -6.43919610       8.17940144       6.01131841
H       -6.03281549      10.48734232       6.80368565
H       -3.72083123      11.37975659       6.91345819
H       -2.19546460       7.64339228       5.45472330
C       -9.00936309       0.18485643       6.30758763
C       -9.76281173      -0.70603535       6.61264992
Br     -10.98107444      -2.14653201       7.10590983
C        1.79061392      -1.79061392       1.79061392
C        3.11936792      -1.44835037       2.01020728
C        3.93673696      -2.27392332       2.79392921
C        3.44528796      -3.44329658       3.38152223
C        2.08654350      -3.75187353       3.15969034
C        1.26792267      -2.94320918       2.36440495
C        4.28695449      -4.38375584       4.13616965
N        4.06347463      -5.74630463       4.01705637
H        3.39876051      -6.16823088       3.38883553
C        4.82578504      -6.43576890       4.92257776
N        5.64897966      -5.60139972       5.52032270
C        5.33390778      -4.33355440       5.06171829
C        5.99374873      -3.18620592       5.66343711
C        6.66446638      -2.21750765       4.91088768
C        7.29506778      -1.13519510       5.53602841
C        7.31708339      -1.05687186       6.92770965
C        6.72503422      -2.05474393       7.69685855
C        6.06421153      -3.11270079       7.06348277
C        4.71801443      -7.87760061       5.14786804
C        5.83405873      -8.59351264       5.60453934
C        5.75849374      -9.97082391       5.83116747
C        4.55825839     -10.64674934       5.61700006
C        3.43919639      -9.93986227       5.18300169
Cl       1.94969887     -10.76559175       4.93708344
C        3.51171659      -8.56531411       4.94962452
H        3.53877689      -0.54826035       1.56699170
H        4.97192906      -1.98381727       2.89422296
H        1.63707943      -4.63715662       3.60703469
H        0.23066374      -3.22313913       2.19997055
H        6.74441340      -2.31180284       3.83467440
H        7.78167236      -0.37761303       4.93222896
H        6.77583929      -2.02734855       8.77934611
H        5.61846113      -3.89830353       7.66858229
H        6.77362507      -8.07300531       5.78328555
H        6.63418387     -10.51099991       6.17865969
H        4.49995720     -11.71661203       5.79747678
H        2.61478777      -8.03976573       4.63902667
C        7.97836035       0.04833547       7.57178227
C        8.53217981       0.97394661       8.11119309
Br       9.42765904       2.47058153       8.98337475
C       -0.00445707       0.01189536      -1.78238275
H       -0.66409135       0.67374010      -2.43557963
H        0.65740317      -0.63156657      -2.45157240
C       -0.90989263      -0.90692880      -0.91072765
C        0.90977584       0.90977584      -0.90977584
C       -0.00465871       1.77757030       0.00794375
H       -0.66225468       2.44313916      -0.64384735
H        0.64322798       2.43503045       0.67728295
C       -1.78241447       0.00034974      -0.00472694
H       -2.45427497      -0.65498947       0.64260836
H       -2.43311707       0.67328779      -0.65473579
C       -0.91132561       0.90220522       0.91563759
C       -0.01476271      -0.02253852       1.78660255
H       -0.67934791      -0.69751639       2.42135241
H        0.63392994       0.61504881       2.47327442
C        0.01484550      -1.77751727      -0.01636693
H        0.67870853      -2.42144646      -0.68295456
H       -0.62264859      -2.45592969       0.64226336
C        1.78714474       0.01002794       0.00389507
H        2.44202412       0.67113390       0.66197326
H        2.45385902      -0.65136977      -0.64189061
C        0.91606151      -0.90478549       0.90901405
