198
Properties=species:S:1:pos:R:3 pbc="F F F"
C        1.79097851       1.79097851      -1.79097851
C        3.05063520       1.35286375      -2.15637282
C        3.85055644       2.15525258      -2.97971183
C        3.43885245       3.40793262      -3.47503606
C        2.15601420       3.81519815      -3.05960152
C        1.33933627       3.02573028      -2.23321872
N        4.11606829       4.25592780      -4.30070424
C        5.37010783       4.03834152      -4.75677281
O        5.90629975       2.94460263      -4.41959766
C        7.06286969       2.60939002      -4.74692646
C        7.51504271       1.37706647      -4.27924118
C        8.78900228       0.93577662      -4.59404725
O        9.17132530      -0.27319181      -4.09610010
C        9.63267397       1.70487630      -5.38511671
C        9.18702450       2.94090798      -5.86665215
C        7.89356172       3.40182710      -5.54528282
C        7.37359296       4.60665190      -5.98059014
C        6.06956881       4.94613849      -5.60401483
C        5.47634158       6.20708586      -6.10578866
S        5.81557674       6.71686041      -7.73215303
C        4.87495255       8.12126330      -7.49757727
C        4.30321179       8.10571104      -6.24197905
N        4.71296757       7.04827710      -5.43642707
C        3.36025108       9.11775524      -5.76976423
C        3.20907283       9.34492567      -4.39506908
C        2.30310802      10.30207307      -3.92323977
C        1.53358837      11.03239226      -4.82579122
Br       0.30231990      12.31915066      -4.19255915
C        1.65899609      10.81404336      -6.19457577
C        2.56773894       9.85954655      -6.66329874
H        3.43230361       0.39332434      -1.82143509
H        4.81663365       1.73867425      -3.21790808
H        1.76976639       4.77963640      -3.39020768
H        0.35693916       3.38918740      -1.95161365
H        6.85269043       0.77619851      -3.66700649
H       10.08860082      -0.46943808      -4.35184400
H       10.63284128       1.36001420      -5.63600216
H        9.85086294       3.53753997      -6.49043215
H        7.97657723       5.26658861      -6.59865436
H        4.77184197       8.85307428      -8.28542749
H        3.79392767       8.76856025      -3.67972509
H        2.20225141      10.45953852      -2.85280086
H        1.05076696      11.36930071      -6.90395640
H        2.62429746       9.69201887      -7.73577893
C       -1.79097851      -1.79097851      -1.79097851
C       -3.11925875      -1.98286608      -1.45774694
C       -3.93057674      -2.77738973      -2.27755438
C       -3.46737499      -3.40292010      -3.45152604
C       -2.10436181      -3.19019863      -3.73625342
C       -1.27409005      -2.39818628      -2.92600895
N       -4.16809412      -4.16916291      -4.33544329
C       -5.46975217      -4.50483360      -4.19063640
O       -6.06411295      -4.02058518      -3.18580191
C       -7.25838109      -4.25259843      -2.90820665
C       -7.76170244      -3.65559047      -1.75405744
C       -9.07604813      -3.86828492      -1.37449310
O       -9.50081137      -3.26303255      -0.23038967
C       -9.91580891      -4.66924263      -2.13761543
C       -9.42370393      -5.26823548      -3.30264522
C       -8.08428547      -5.06305979      -3.69332637
C       -7.51891642      -5.61315652      -4.82876205
C       -6.18056715      -5.32336833      -5.11578666
C       -5.57391403      -5.85908798      -6.35621410
S       -6.52858833      -5.92938544      -7.80661642
C       -5.21814216      -6.62986190      -8.64578906
C       -4.11619128      -6.71483886      -7.81987174
N       -4.35524878      -6.34087779      -6.50154517
C       -2.80364883      -7.17706887      -8.26705286
C       -1.89763429      -7.71089024      -7.34054305
C       -0.63193126      -8.14861755      -7.74787205
C       -0.26026753      -8.04523618      -9.08626814
Br       1.45132211      -8.62644083      -9.63891100
C       -1.13996543      -7.50688497     -10.02076482
C       -2.40542797      -7.07368333      -9.61147294
H       -3.54985986      -1.52420765      -0.57299553
H       -4.95274917      -2.87375567      -1.94671114
H       -1.66633203      -3.65172952      -4.62154892
H       -0.23308049      -2.26477602      -3.19988370
H       -7.10608177      -3.02633570      -1.16347796
H      -10.42410687      -3.50355563      -0.04334424
H      -10.94912553      -4.83631391      -1.84341820
H      -10.08783721      -5.89127004      -3.89972782
H       -8.11184439      -6.25664694      -5.47332886
H       -5.31580073      -6.91009047      -9.68445254
H       -2.17153017      -7.78177015      -6.28891271
H        0.05405918      -8.55762207      -7.01102789
H       -0.85103305      -7.40896057     -11.06403045
H       -3.06044959      -6.63301855     -10.35862712
C       -1.79097851       1.79097851       1.79097851
C       -1.69259117       3.16729011       1.69999049
C       -2.51481959       3.97402383       2.49667743
C       -3.46235596       3.45754022       3.40192494
C       -3.51044978       2.05137032       3.46899376
C       -2.69343950       1.22523493       2.67961085
N       -4.32995597       4.14148793       4.20125642
C       -4.38586104       5.48943838       4.28992275
O       -3.60463359       6.13293984       3.53292660
C       -3.52795911       7.37828609       3.51294097
C       -2.60274797       7.93591474       2.63268765
C       -2.45349104       9.31015199       2.55518312
O       -1.52424592       9.78852584       1.68146183
C       -3.22526461      10.15474183       3.34266053
C       -4.16284600       9.60661110       4.22512752
C       -4.31684858       8.20775994       4.31606312
C       -5.21954458       7.58404681       5.15724361
C       -5.28694461       6.18659413       5.14618339
C       -6.28567488       5.50332732       6.00021390
S       -7.86201765       6.20879852       6.19377402
C       -8.31073029       4.94001134       7.24305149
C       -7.28588407       4.02170127       7.34331654
N       -6.11524306       4.39258422       6.68984445
C       -7.39282491       2.76794799       8.08699765
C       -6.23628691       2.14163474       8.57114594
C       -6.31755937       0.93491376       9.27594773
C       -7.55865088       0.34078208       9.49233889
Br      -7.67203360      -1.29339776      10.43539387
C       -8.71859555       0.93946546       9.00955421
C       -8.63465131       2.14713689       8.30879602
H       -0.99209401       3.63790792       1.01706111
H       -2.37528229       5.03523083       2.36270286
H       -4.20958740       1.57402411       4.15599896
H       -2.78013661       0.14780453       2.76979907
H       -2.00587823       7.27493537       2.01508184
H       -1.48186052      10.75863379       1.73051245
H       -3.11202080      11.23444177       3.28239507
H       -4.76864308      10.27359664       4.83659535
H       -5.85437028       8.17840851       5.80904139
H       -9.29025148       4.92195899       7.69813327
H       -5.25928941       2.58892134       8.39400227
H       -5.40689912       0.46728631       9.64040535
H       -9.68894022       0.47376818       9.16131568
H       -9.55442109       2.57704941       7.92062476
C        1.79097851      -1.79097851       1.79097851
C        1.21161063      -2.76526300       2.58299814
C        2.02361114      -3.58460263       3.37730708
C        3.42767461      -3.47873697       3.41540954
C        3.96585043      -2.46037542       2.60458800
C        3.16842387      -1.62761861       1.80224279
N        4.31475669      -4.23491968       4.12302395
C        3.96502509      -5.22198741       4.97820966
O        2.72936694      -5.47146136       5.06967174
C        2.25154860      -6.33992647       5.82771110
C        0.86521725      -6.48095913       5.82517398
C        0.25753831      -7.41876461       6.64252323
O       -1.10172587      -7.49744669       6.59851277
C        1.01476759      -8.23845463       7.46944475
C        2.40831939      -8.11104139       7.47522384
C        3.03562054      -7.15371846       6.65133264
C        4.40384152      -6.96385731       6.59313616
C        4.90633519      -5.98915462       5.72423233
C        6.37188329      -5.80928009       5.60805272
S        7.40503678      -7.20589220       5.65366121
C        8.77950998      -6.20480136       5.50948179
C        8.39480986      -4.88727508       5.36881694
N        7.02712032      -4.67022475       5.50032666
C        9.33177286      -3.79262862       5.12336907
C        8.98532955      -2.48258458       5.48115345
C        9.86476527      -1.41961970       5.24403590
C       11.09499581      -1.66006566       4.63671038
Br      12.28152920      -0.22631367       4.30618684
C       11.45383587      -2.95156214       4.26221720
C       10.57456617      -4.01228552       4.50373255
H        0.13616493      -2.91276715       2.59813097
H        1.49216772      -4.31861912       3.96242913
H        5.04496577      -2.30580850       2.58883620
H        3.64040758      -0.86447664       1.19285598
H        0.27700587      -5.84417682       5.17471273
H       -1.42251632      -8.16310693       7.23041613
H        0.54064093      -8.97747012       8.11074660
H        2.99737848      -8.75958039       8.12187619
H        5.06217209      -7.56359669       7.21605141
H        9.77266633      -6.62968407       5.50799334
H        8.01952292      -2.28065545       5.94203465
H        9.57351140      -0.41222019       5.52885919
H       12.40561988      -3.14443164       3.77397256
H       10.87064439      -5.00546214       4.17598872
C       -0.00445707       0.01189536      -1.78238275
H       -0.66409135       0.67374010      -2.43557963
H        0.65740317      -0.63156657      -2.45157240
C       -0.90989263      -0.90692880      -0.91072765
C        0.90977584       0.90977584      -0.90977584
C       -0.00465871       1.77757030       0.00794375
H       -0.66225468       2.44313916      -0.64384735
H        0.64322798       2.43503045       0.67728295
C       -1.78241447       0.00034974      -0.00472694
H       -2.45427497      -0.65498947       0.64260836
H       -2.43311707       0.67328779      -0.65473579
C       -0.91132561       0.90220522       0.91563759
C       -0.01476271      -0.02253852       1.78660255
H       -0.67934791      -0.69751639       2.42135241
H        0.63392994       0.61504881       2.47327442
C        0.01484550      -1.77751727      -0.01636693
H        0.67870853      -2.42144646      -0.68295456
H       -0.62264859      -2.45592969       0.64226336
C        1.78714474       0.01002794       0.00389507
H        2.44202412       0.67113390       0.66197326
H        2.45385902      -0.65136977      -0.64189061
C        0.91606151      -0.90478549       0.90901405
