193
Properties=species:S:1:pos:R:3 pbc="F F F"
C        0.00000000       0.00000000       0.00000000
C        3.41060445       3.02858698      -4.62805438
O        3.28151573       3.33547951      -3.24474212
C        2.48289096       2.49750594      -2.50659294
C        2.27447931       1.15185174      -2.83128463
C        1.46967036       0.34654444      -2.02297721
C        0.88174281       0.88174281      -0.88174281
C        1.09268423       2.21565709      -0.53712181
C        1.89803815       3.04335848      -1.34230589
C        2.07956963       4.50423502      -0.94061173
H        1.59597649       4.65021811       0.03527108
C        1.38488105       5.42599881      -1.94218958
C        1.67623711       6.85552083      -1.58106012
O        0.77416625       7.68812965      -1.52340490
C        3.14834127       7.21102765      -1.42069539
H        3.60866795       7.09943572      -2.41048662
C        3.29831464       8.66957549      -0.98477753
C        3.75262826       6.21969921      -0.40291526
H        3.25350343       6.38927952       0.56229038
N        3.49894560       4.81111376      -0.74213833
C        5.25126329       6.42774028      -0.18609482
C        5.68327015       6.92886672       1.05805243
C        7.03952523       7.12624451       1.31510352
C        7.98942636       6.83549461       0.34381116
C        7.58097842       6.33981218      -0.89558409
C        6.22290684       6.12165910      -1.16281561
O        5.77429557       5.64841235      -2.37179817
C        6.63751607       4.70603077      -3.00589036
H        2.43391368       2.87296011      -5.09695733
H        4.06634290       2.16506928      -4.77797743
H        3.88066256       3.88870445      -5.11484888
H        2.74101233       0.69748773      -3.69877325
H        1.31640011      -0.69590855      -2.28861843
H        0.63105492       2.61597963       0.36292073
H        0.30000148       5.26479536      -1.91437662
H        1.71261146       5.27538184      -2.97650012
H        2.84825712       8.83844149       0.00075695
H        2.79917769       9.34129360      -1.69223138
H        4.34905702       8.96915722      -0.93891800
H        4.00109183       4.59307092      -1.60995010
H        4.95449109       7.16281489       1.83122507
H        9.04751584       6.99234633       0.53663496
H        8.34437157       6.14308858      -1.64172811
H        6.95834589       3.92266828      -2.31058349
H        7.49687420       5.20550964      -3.46220977
H        6.07473382       4.22615085      -3.81212600
C        7.45832465       7.63989890       2.59352685
C        7.80906917       8.07008445       3.66420638
Br       8.37619340       8.76565810       5.39540464
C       -4.20165634      -4.14038705      -2.72520242
O       -3.27893054      -3.24633584      -3.33647098
C       -2.50936790      -2.49027044      -2.48735149
C       -2.16015870      -2.90176095      -1.19569603
C       -1.35227489      -2.09534912      -0.39156800
C       -0.88174281      -0.88174281      -0.88174281
C       -1.20818175      -0.46591995      -2.17136143
C       -2.02462311      -1.26426885      -2.99481057
C       -2.37785947      -0.75672213      -4.38983477
H       -1.81302770       0.16907871      -4.56697454
C       -3.86458398      -0.41350338      -4.47498209
C       -4.20081610      -0.02470876      -5.88729322
O       -4.85178422       0.99036328      -6.12427986
C       -3.79407964      -1.02261088      -6.96337379
H       -4.39461869      -1.92596404      -6.79800756
C       -4.12828697      -0.47311654      -8.35126414
C       -2.28732553      -1.30624447      -6.78167274
H       -1.74777570      -0.36596001      -6.96675686
N       -1.93225754      -1.70796951      -5.41197063
C       -1.75272522      -2.34287206      -7.76950110
C       -0.86617674      -1.91158725      -8.77632045
C       -0.33782643      -2.81635689      -9.69648290
C       -0.68185084      -4.16115986      -9.63809910
C       -1.56000228      -4.60739288      -8.64897953
C       -2.08669951      -3.71270294      -7.70797910
O       -2.96400185      -4.10428684      -6.72621740
C       -2.73532383      -5.41151216      -6.20260120
H       -4.80449035      -3.63554524      -1.96379553
H       -3.68593236      -5.01249276      -2.31096450
H       -4.88114371      -4.49807269      -3.50499949
H       -2.48786720      -3.85483204      -0.79457406
H       -1.09060639      -2.42781565       0.60931205
H       -0.82552822       0.48280955      -2.54139515
H       -4.09708452       0.42644751      -3.80853644
H       -4.52252255      -1.24424733      -4.19772353
H       -3.55677222       0.43754203      -8.56671147
H       -5.19140277      -0.21747348      -8.42382641
H       -3.91637983      -1.20565465      -9.13509776
H       -2.36789768      -2.61678093      -5.21943423
H       -0.58510902      -0.86240972      -8.83856217
H       -0.27732492      -4.87000858     -10.35589370
H       -1.82722695      -5.65941464      -8.64254668
H       -1.68115035      -5.56386673      -5.94658057
H       -3.08852345      -6.17986795      -6.89620220
H       -3.31948185      -5.51068255      -5.28284627
C        0.56601341      -2.35331365     -10.71739646
C        1.32297927      -1.96551493     -11.57241158
Br       2.54692904      -1.33847721     -12.95489870
C       -2.72474511       4.15460325       4.18789746
O       -3.33532729       3.28188844       3.24452163
C       -2.48674093       2.50925059       2.49099833
C       -1.22134920       2.10430519       2.93196130
C       -0.41726603       1.29649878       2.12542720
C       -0.88174281       0.88174281       0.88174281
C       -2.14568773       1.26401386       0.43576154
C       -2.96852867       2.08126928       1.23390458
C       -4.33386002       2.49675635       0.69380001
H       -4.49822222       1.96815941      -0.25545811
C       -4.35974566       3.99574914       0.39757464
C       -5.74683476       4.39100807      -0.02502476
O       -5.92894688       5.08176820      -1.02501428
C       -6.86796905       3.98836761       0.92372765
H       -6.71347505       4.55374594       1.85136929
C       -8.22539289       4.38595707       0.34131770
C       -6.74429807       2.46807551       1.16286916
H       -6.91530283       1.96546270       0.19972704
N       -5.40080709       2.05500005       1.59639055
C       -7.78266902       1.93353315       2.14889621
C       -8.80258199       1.09521956       1.65628289
C       -9.76878046       0.56891102       2.51297473
C       -9.74405480       0.86741506       3.86963994
C       -8.74258887       1.69744789       4.37633794
C       -7.75596247       2.22108933       3.53032974
O       -6.76005934       3.05227439       3.98217235
C       -6.28775398       2.76444835       5.29723487
H       -1.92801774       4.74773557       3.72807781
H       -2.35647818       3.59765177       5.05525966
H       -3.49375041       4.84776206       4.54270342
H       -0.84176928       2.38771905       3.90778498
H        0.56309772       0.99119444       2.48101327
H       -2.49612239       0.92454194      -0.53655051
H       -3.65865211       4.23286502      -0.41234368
H       -4.08922354       4.61708385       1.25818602
H       -8.42873926       3.85146960      -0.59426720
H       -8.25522707       5.45856156       0.11891404
H       -9.03952091       4.17676181       1.04084952
H       -5.22465210       2.45457808       2.52488266
H       -8.83895387       0.85023332       0.59689372
H      -10.49761749       0.46437534       4.54123438
H       -8.76250552       1.93036746       5.43631528
H       -6.07094059       1.69800447       5.42265259
H       -6.99477562       3.11560934       6.05420863
H       -5.35350255       3.31425750       5.44525061
C      -10.80227377      -0.28518694       1.98760987
C      -11.66782442      -1.00049399       1.54761680
Br     -13.06734662      -2.15708498       0.83618522
C        2.78983492      -3.83662537       4.44078553
O        3.32501114      -3.30019512       3.23653110
C        2.48366777      -2.50758331       2.49573876
C        1.43768702      -1.76444473       3.05548393
C        0.63373096      -0.95722468       2.24823638
C        0.88174281      -0.88174281       0.88174281
C        1.92927164      -1.60370051       0.31249098
C        2.74771554      -2.42557320       1.11041380
C        3.86608293      -3.21826614       0.44006731
H        3.91061502      -2.91569865      -0.61539014
C        3.55974543      -4.71495901       0.47836501
C        4.72823213      -5.47209745      -0.08751151
O        4.56191796      -6.35247021      -0.92868736
C        6.08267834      -5.16172872       0.53565725
H        6.03635784      -5.50558734       1.57664512
C        7.18740737      -5.94304413      -0.17778384
C        6.28651383      -3.63340655       0.45532234
H        6.32976968      -3.35969073      -0.60896784
N        5.16541365      -2.86674514       1.02003890
C        7.59313131      -3.17177986       1.10018721
C        8.61334451      -2.67754629       0.26319365
C        9.82101751      -2.23106554       0.79858317
C       10.04030067      -2.27088134       2.16992780
C        9.04233475      -2.75869068       3.01534927
C        7.81786579      -3.19625432       2.49326144
O        6.81306099      -3.69613684       3.28530825
C        6.69803688      -3.08304930       4.56835102
H        1.81951306      -4.31364813       4.27066992
H        2.72478558      -3.06760451       5.21699952
H        3.48192949      -4.60649771       4.79578868
H        1.23603294      -1.78005091       4.12118946
H       -0.17509794      -0.38708368       2.69712425
H        2.11369284      -1.52731809      -0.75689711
H        2.66808413      -4.93348312      -0.12239380
H        3.37751077      -5.09910691       1.48787573
H        7.27337856      -5.64090124      -1.22833814
H        6.97678342      -7.01832782      -0.16240858
H        8.15847641      -5.79560779       0.30304803
H        5.12797369      -3.04662983       2.02950932
H        8.46059965      -2.63876888      -0.81328761
H       10.98162279      -1.92918897       2.59241544
H        9.25136570      -2.79806945       4.07975311
H        6.70698108      -1.99011447       4.49450209
H        7.47923372      -3.43971964       5.24564025
H        5.73611193      -3.38041153       4.99648721
C       10.84992056      -1.73047309      -0.07569694
C       11.71162686      -1.31122691      -0.80790654
Br      13.10493308      -0.63334131      -1.99182752
