186
Properties=species:S:1:pos:R:3 pbc="F F F"
C        1.79174883       1.79174883      -1.79174883
C        1.69152443       3.17793918      -1.70492839
C        2.49595841       3.98477733      -2.51409457
C        3.40194866       3.41377965      -3.42375261
C        3.49008787       2.01233370      -3.48922260
C        2.69039711       1.20431934      -2.67767881
C        4.27085979       4.31662181      -4.29551410
H        3.70480281       5.25019284      -4.40096036
N        4.42065384       3.75822159      -5.64829908
C        5.20092580       4.59824686      -6.57416004
H        5.41685540       3.93659673      -7.42543507
C        4.38157646       5.75262513      -7.15032536
C        4.14181544       6.95265557      -6.46043632
C        3.37943122       7.97594871      -7.03361661
C        2.85591917       7.81928406      -8.31289845
Br       1.83996269       9.20767427      -9.09023892
C        3.08377265       6.64443348      -9.02166205
C        3.83365141       5.61632695      -8.44098295
C        6.58773587       4.93837650      -5.99590317
H        7.14857156       4.00080463      -5.88195607
C        7.42826943       5.83258225      -6.90347336
C        6.42677451       5.49339731      -4.59225448
O        6.97727083       6.53346853      -4.22488484
C        5.61579780       4.65817900      -3.62210374
H        5.41608837       5.28591893      -2.74221509
C        6.46511078       3.47062044      -3.16977482
H        0.99150237       3.64029857      -1.01335408
H        2.40460410       5.06641322      -2.43149057
H        4.18981293       1.53832592      -4.17620221
H        2.77659188       0.12334403      -2.74691276
H        3.49060381       3.60677045      -6.04455629
H        4.54588327       7.12865844      -5.46733895
H        3.20840922       8.89232496      -6.47371774
H        2.68634358       6.51728136     -10.02465033
H        3.99802162       4.70665739      -9.01641576
H        7.01804235       6.84293364      -6.98883452
H        7.50612067       5.40393173      -7.90804205
H        8.44383683       5.93220219      -6.50412364
H        6.58125878       2.72151350      -3.95964655
H        6.02255513       2.98072322      -2.29683689
H        7.47069025       3.80059423      -2.88219589
C       -1.79174883      -1.79174883      -1.79174883
C       -3.08675180      -2.10262325      -1.38501695
C       -3.89245974      -2.91215256      -2.19021802
C       -3.40852730      -3.42562778      -3.40532584
C       -2.10039021      -3.09310393      -3.79815004
C       -1.29534364      -2.28003352      -2.99701810
C       -4.30875706      -4.30631632      -4.26792231
H       -5.01306004      -4.77386530      -3.56903066
N       -3.54149817      -5.39770502      -4.88797131
C       -4.34759688      -6.33092763      -5.69480820
H       -3.60558489      -6.90915150      -6.26415082
C       -5.09346860      -7.35324272      -4.83781564
C       -6.30178778      -7.07611367      -4.17700588
C       -6.94026396      -8.04859446      -3.40013812
C       -6.38567936      -9.31901939      -3.28340293
Br      -7.25696916     -10.63429953      -2.24660718
C       -5.19391274      -9.62313525      -3.93282020
C       -4.54912125      -8.64492009      -4.69691998
C       -5.15992732      -5.58892139      -6.77316683
H       -4.45223511      -5.11339378      -7.46570337
C       -6.03695599      -6.50689413      -7.62047493
C       -5.93162528      -4.45111741      -6.12968361
O       -7.13407182      -4.26957931      -6.33197306
C       -5.13105595      -3.48393319      -5.28109140
H       -5.85149217      -2.86632236      -4.72640786
C       -4.33617480      -2.56294405      -6.20638719
H       -3.47822671      -1.72216865      -0.44475965
H       -4.90251718      -3.14349437      -1.85649635
H       -1.69883852      -3.46617620      -4.73932633
H       -0.28731359      -2.03737021      -3.32216487
H       -3.06704819      -5.92382622      -4.15105614
H       -6.78283413      -6.10495822      -4.25408831
H       -7.87310590      -7.80334037      -2.89800564
H       -4.75852849     -10.61530480      -3.85444198
H       -3.61756316      -8.90797008      -5.19556153
H       -6.85944008      -6.94362661      -7.04674382
H       -5.44509009      -7.32056700      -8.05243735
H       -6.48622843      -5.94612800      -8.44780623
H       -3.49796648      -3.08078657      -6.68366578
H       -3.93888061      -1.70290743      -5.65832720
H       -4.97610723      -2.17114129      -7.00623186
C       -1.79174883       1.79174883       1.79174883
C       -1.20551281       2.71307646       2.65580273
C       -2.01218722       3.51759525       3.46504784
C       -3.41202085       3.40285957       3.42460049
C       -3.98127372       2.47034148       2.54002898
C       -3.17673713       1.66884951       1.72680861
C       -4.27147235       4.29424343       4.31727991
H       -3.63783770       4.53986803       5.17825027
N       -5.42985259       3.55488867       4.84243325
C       -6.28378225       4.32795932       5.76159113
H       -7.19994925       3.72671150       5.85222646
C       -5.70427206       4.40661932       7.17363559
C       -4.69619318       5.31047440       7.54823975
C       -4.19770609       5.33624517       8.85504528
C       -4.71042149       4.46605019       9.81163000
Br      -4.04658644       4.51297490      11.57831454
C       -5.71402910       3.56564437       9.47019472
C       -6.20066789       3.53101164       8.15928179
C       -6.75632715       5.64618934       5.11949904
H       -7.38222728       5.39727719       4.25182779
C       -7.62207185       6.50146336       6.04078984
C       -5.55868303       6.39296196       4.56078131
O       -5.35653526       7.58682391       4.79226502
C       -4.65350322       5.61821946       3.62435786
H       -3.74143208       6.21600350       3.48678682
C       -5.34430255       5.49470002       2.26650347
H       -0.12412102       2.81258851       2.70844548
H       -1.53612738       4.23299716       4.13338335
H       -5.06338454       2.36412713       2.47682939
H       -3.64042543       0.95503761       1.05138562
H       -5.09287023       2.72092831       5.32813201
H       -4.27846961       6.02204291       6.84136814
H       -3.41498369       6.04521429       9.11425394
H       -6.12643437       2.88876966      10.21307124
H       -6.98654768       2.81722896       7.91731812
H       -7.05754591       6.90689113       6.88537347
H       -8.46388691       5.92131959       6.43288795
H       -8.03334396       7.35562097       5.49119773
H       -6.18124489       4.78940703       2.29176691
H       -4.64097847       5.16268164       1.49645512
H       -5.74384026       6.46425119       1.94538892
C        1.79174883      -1.79174883       1.79174883
C        2.95504061      -1.26874321       2.35060818
C        3.76361931      -2.07647857       3.15473243
C        3.42168332      -3.41693990       3.40085769
C        2.23949146      -3.92094768       2.83120504
C        1.42747186      -3.11365999       2.03126341
C        4.32057218      -4.27835262       4.28407090
H        5.32274781      -3.84242091       4.19078728
N        4.40779980      -5.65273649       3.76663822
C        5.30356262      -6.53872824       4.53104185
H        5.06043034      -7.54847848       4.16997839
C        6.77648103      -6.32356755       4.18447838
C        7.55403872      -5.28248448       4.71838414
C        8.89808778      -5.12849167       4.36241709
C        9.48905202      -6.02303919       3.47601047
Br      11.30710220      -5.82203706       3.00873661
C        8.74469351      -7.06742529       2.93774938
C        7.39687979      -7.21090183       3.28317969
C        4.92836359      -6.56874395       6.02490800
H        3.92053638      -6.99632335       6.11447252
C        5.84420585      -7.45031642       6.86980277
C        4.81885125      -5.14733427       6.54624078
O        5.37413428      -4.77831218       7.58317774
C        3.91636787      -4.20877304       5.77093964
H        4.11331139      -3.19195370       6.13895730
C        2.46186292      -4.55175742       6.09188570
H        3.24218522      -0.23638382       2.16658598
H        4.66854184      -1.64994452       3.58402153
H        1.94052940      -4.95268940       3.01112225
H        0.51865152      -3.52638842       1.60180873
H        4.72804482      -5.61737266       2.79651307
H        7.14196915      -4.57113027       5.42878125
H        9.47357296      -4.31088706       4.78999190
H        9.20056463      -7.77584125       2.25186939
H        6.83594007      -8.03672275       2.84843195
H        6.85686895      -7.04447405       6.94846751
H        5.90689802      -8.46011825       6.45107818
H        5.45375505      -7.53634576       7.89006185
H        2.14649427      -5.49059532       5.62532924
H        1.78728817      -3.75891604       5.75391102
H        2.31906738      -4.66061517       7.17379782
C       -0.00445707       0.01189536      -1.78238275
H       -0.66409135       0.67374010      -2.43557963
H        0.65740317      -0.63156657      -2.45157240
C       -0.90989263      -0.90692880      -0.91072765
C        0.90977584       0.90977584      -0.90977584
C       -0.00465871       1.77757030       0.00794375
H       -0.66225468       2.44313916      -0.64384735
H        0.64322798       2.43503045       0.67728295
C       -1.78241447       0.00034974      -0.00472694
H       -2.45427497      -0.65498947       0.64260836
H       -2.43311707       0.67328779      -0.65473579
C       -0.91132561       0.90220522       0.91563759
C       -0.01476271      -0.02253852       1.78660255
H       -0.67934791      -0.69751639       2.42135241
H        0.63392994       0.61504881       2.47327442
C        0.01484550      -1.77751727      -0.01636693
H        0.67870853      -2.42144646      -0.68295456
H       -0.62264859      -2.45592969       0.64226336
C        1.78714474       0.01002794       0.00389507
H        2.44202412       0.67113390       0.66197326
H        2.45385902      -0.65136977      -0.64189061
C        0.91606151      -0.90478549       0.90901405
