177
Properties=species:S:1:pos:R:3 pbc="F F F"
C        0.00000000       0.00000000       0.00000000
C        0.88177395       0.88177395      -0.88177395
C        1.33339786       2.10755324      -0.40187376
C        2.13223876       2.91589148      -1.21439520
C        2.49276200       2.50942197      -2.51361650
C        2.02649342       1.26678576      -2.97208542
C        1.22473359       0.45693426      -2.16245535
C        3.34428093       3.43092818      -3.38280463
H        2.79357918       4.38224192      -3.36980251
N        3.36892626       3.04502631      -4.79210553
C        4.47422776       2.85376554      -5.41825332
C        5.82129063       3.04191833      -4.77491804
C        5.71028780       2.85185181      -3.26906586
H        6.65139446       3.25286793      -2.86478963
N        4.64060716       3.72237332      -2.75824160
C        5.65106003       1.43315462      -2.71865566
C        5.60034418       0.29363598      -3.53839768
C        5.62692962      -0.99276024      -2.98757999
C        5.71982732      -1.16613256      -1.60894843
C        5.76283682      -0.05351555      -0.77541174
C        5.70960013       1.22234600      -1.32888751
O        5.69027181       2.27637040      -0.45489196
C        4.43904607       2.44018302      -6.85067300
C        5.47316803       2.78355027      -7.73104664
C        5.42779857       2.36255927      -9.06203276
C        4.35367038       1.59747032      -9.51634134
C        3.32169613       1.26425229      -8.63977182
Br       1.87133270       0.22088855      -9.25766739
C        3.35357143       1.68622231      -7.31175557
H        1.07198728       2.44351693       0.59759626
H        2.47865929       3.87253824      -0.82896167
H        2.28451643       0.91829139      -3.96852228
H        0.87519891      -0.49910007      -2.54225262
H        6.56743567       2.36520441      -5.20531449
H        6.14277245       4.06844383      -4.99701805
H        4.86735416       4.67887797      -3.02876696
H        5.53585442       0.37295543      -4.61875517
H        5.57903910      -1.86192793      -3.63910078
H        5.74704316      -2.16514468      -1.18331623
H        5.81858787      -0.17531468       0.30223059
H        5.20800209       2.99033567      -0.92272610
H        6.31435699       3.38959455      -7.40639083
H        6.22894666       2.63249138      -9.74646564
H        4.32801156       1.27020606     -10.55284650
H        2.54471815       1.42300915      -6.63422624
C       -0.88177395      -0.88177395      -0.88177395
C       -2.12783893      -0.41991660      -1.29506934
C       -2.93586873      -1.23264672      -2.09400998
C       -2.50895069      -2.51398417      -2.49286561
C       -1.24618054      -2.95436346      -2.06482061
C       -0.43650781      -2.14455367      -1.26306172
C       -3.43002943      -3.38475210      -3.34323221
H       -4.36865133      -3.40557454      -2.77139774
N       -3.01360097      -4.78403560      -3.40842153
C       -2.83362899      -5.38099309      -4.53162453
C       -3.06654449      -4.71235401      -5.85922849
C       -2.90747765      -3.20541023      -5.71831759
H       -3.33862789      -2.78955219      -6.64087193
N       -3.76461684      -2.73834667      -4.61825858
C       -1.50036795      -2.62438780      -5.67811456
C       -0.34207766      -3.41897530      -5.67132489
C        0.93084076      -2.83864411      -5.71394602
C        1.07141707      -1.45471004      -5.77935022
C       -0.06011642      -0.64589520      -5.77872139
C       -1.32184149      -1.22923554      -5.70975660
O       -2.39429485      -0.38003585      -5.64720348
C       -2.38766261      -6.80408330      -4.53815618
C       -2.73479065      -7.66885437      -5.58411992
C       -2.28343967      -8.99062009      -5.57833084
C       -1.48427003      -9.45117336      -4.53203865
C       -1.14725043      -8.59038720      -3.48808261
Br      -0.05777483      -9.21647903      -2.07563479
C       -1.59920770      -7.27191158      -3.48043003
H       -2.47988331       0.56562103      -1.00364566
H       -3.90845197      -0.86143421      -2.41027302
H       -0.88160222      -3.93666019      -2.35306769
H        0.53540890      -2.51021580      -0.94354456
H       -2.39755613      -5.11061086      -6.62978758
H       -4.09492045      -4.95050855      -6.16280534
H       -4.71978192      -3.02541539      -4.82980178
H       -0.39591380      -4.50202013      -5.62963109
H        1.81511845      -3.47116941      -5.70016099
H        2.05986054      -1.00601084      -5.81906441
H        0.03643662       0.43520616      -5.81268538
H       -3.08656877      -0.87454547      -5.15994961
H       -3.36683034      -7.33944849      -6.40406354
H       -2.55623015      -9.66305326      -6.38862028
H       -1.13358222     -10.48029667      -4.53718524
H       -1.33280464      -6.60670203      -2.66244687
C       -0.88177395       0.88177395       0.88177395
C       -0.93080606       0.65760275       2.25441605
C       -1.74546739       1.46007494       3.05698311
C       -2.51791473       2.49763932       2.50024642
C       -2.44757645       2.70461069       1.11317747
C       -1.63546751       1.90155443       0.30710126
C       -3.41727358       3.33643922       3.40430094
H       -4.02431988       2.58802784       3.93327589
N       -4.39180272       4.14236760       2.67188778
C       -4.48531415       5.41121116       2.84972130
C       -3.63646539       6.16273355       3.83892805
C       -2.33467471       5.41327773       4.08325302
H       -1.90698816       5.87846805       4.98359581
N       -2.64829310       4.02377274       4.44915625
C       -1.22384222       5.53085385       3.04817424
C       -1.37582908       6.22183775       1.83471101
C       -0.30159663       6.37026690       0.94988583
C        0.94858055       5.84476545       1.26645831
C        1.12242178       5.14897377       2.45818102
C        0.04295550       4.98294908       3.32084005
O        0.25926695       4.23407853       4.44672259
C       -5.48385867       6.18700109       2.05904232
C       -6.06288055       7.35645733       2.56842707
C       -6.97711588       8.07789611       1.79737862
C       -7.31342069       7.63628826       0.51777308
C       -6.74171531       6.46735291       0.01665203
Br      -7.19461768       5.87628139      -1.72101042
C       -5.83447022       5.73587216       0.78120692
H       -0.34281946      -0.13442402       2.70951250
H       -1.77654479       1.27494947       4.12866494
H       -3.02812719       3.49617578       0.64702712
H       -1.60096017       2.08124424      -0.76385295
H       -3.44595412       7.18810032       3.50390013
H       -4.21054659       6.22438076       4.77330698
H       -3.25773745       4.05120619       5.26605545
H       -2.32617034       6.65756783       1.54382685
H       -0.44201520       6.90217251       0.01202425
H        1.78304600       5.96647892       0.58178179
H        2.08805262       4.72012001       2.70897522
H       -0.61199294       3.84214167       4.66692925
H       -5.82851025       7.71500391       3.56682821
H       -7.42953428       8.98384441       2.19452500
H       -8.02274046       8.20593015      -0.07760648
H       -5.39327382       4.82480474       0.38387498
C        0.88177395      -0.88177395       0.88177395
C        0.30189142      -1.66802211       1.87291133
C        1.11217063      -2.46650331       2.68385150
C        2.50981040      -2.49269002       2.51330005
C        3.06892957      -1.69252113       1.50391391
C        2.26105674      -0.89039461       0.69267185
C        3.36583844      -3.35634332       3.43583197
H        3.06399297      -3.03787635       4.44375429
N        4.79213438      -3.04515316       3.36877056
C        5.66822297      -3.95265406       3.12536958
C        5.31148107      -5.40069651       2.92594940
C        3.87611037      -5.52047277       2.43462233
H        3.62229596      -6.58293226       2.56382379
N        2.99766721      -4.77490930       3.34864558
C        3.58731389      -5.25185243       0.96370399
C        4.56546001      -4.80869211       0.05822572
C        4.27147709      -4.65136407      -1.30109179
C        2.99971837      -4.94781413      -1.78488931
C        2.01143721      -5.38016092      -0.90686512
C        2.30402674      -5.50914365       0.44766324
O        1.27373574      -5.87607951       1.27171892
C        7.10856614      -3.57390389       3.04743206
C        8.11799117      -4.48459239       3.38518138
C        9.46009748      -4.11248671       3.27980641
C        9.79762593      -2.83402207       2.83583403
C        8.79051516      -1.92693325       2.50827183
Br       9.25237498      -0.19762263       1.89989104
C        7.44813908      -2.28577620       2.61763403
H       -0.77395086      -1.66824663       2.02361218
H        0.64782846      -3.07626073       3.45607002
H        4.14335021      -1.68685031       1.34112957
H        2.71920200      -0.27878495      -0.07963549
H        6.00766702      -5.89241651       2.23787104
H        5.41222798      -5.89374312       3.90226324
H        3.13665386      -5.15315828       4.28518695
H        5.57393543      -4.57201168       0.38161791
H        5.04074861      -4.29983890      -1.98437555
H        2.77489118      -4.83155844      -2.84123491
H        1.01121357      -5.59870111      -1.26887208
H        1.49041951      -5.48596572       2.14467862
H        7.88230835      -5.48176975       3.74626427
H       10.24371407      -4.81843908       3.54575054
H       10.84479866      -2.55365336       2.75261211
H        6.66827017      -1.57266928       2.36101409
