130
Properties=species:S:1:pos:R:3 pbc="F F F"
C        1.79299377       1.79299377      -1.79299377
C        1.45838879       3.12860128      -1.97507516
C        2.25529618       3.94966148      -2.77943502
C        3.40479852       3.42281205      -3.41046215
C        3.72226894       2.06621363      -3.20994575
C        2.92091629       1.23785149      -2.40025954
S        5.17259255       1.59701618      -4.06650122
C        5.36246510       3.14123846      -4.67537385
C        6.36092838       3.72886448      -5.54664579
C        7.47209690       3.15856983      -6.13762070
C        8.27852851       3.97286889      -6.94637010
C        7.96574360       5.33279028      -7.15094342
C        6.84801826       5.91888924      -6.56030647
C        6.07277813       5.09422952      -5.76998403
S        4.60473771       5.56650995      -4.90228735
O        4.93570772       6.40806379      -3.77722843
O        3.51841187       5.77312003      -5.83005023
C        4.37581577       3.99166223      -4.25709458
H        0.57705992       3.54971183      -1.49664411
H        1.98358750       4.99502284      -2.91516619
H        3.17977145       0.19305785      -2.25583615
H        7.72419862       2.11289004      -5.98842282
H        9.15840560       3.54038531      -7.42022942
H        6.59493858       6.96296337      -6.70846091
C        8.82106509       6.13262389      -7.98897166
C        9.53739684       6.80248455      -8.69082032
Br      10.69564469       7.88559257      -9.82565023
C       -1.79299377      -1.79299377      -1.79299377
C       -1.30971352      -3.01797743      -2.23437428
C       -2.10446778      -3.83744060      -3.04248429
C       -3.40320983      -3.42160627      -3.41325663
C       -3.86968134      -2.17590207      -2.95284490
C       -3.07073653      -1.34932582      -2.13896498
S       -5.49087957      -1.83383507      -3.51139531
C       -5.56019801      -3.28835041      -4.33052900
C       -6.59521648      -3.90320113      -5.13802104
C       -7.85605741      -3.44427923      -5.46795079
C       -8.66176985      -4.25807335      -6.27792430
C       -8.20007150      -5.50721960      -6.74218620
C       -6.93067956      -5.98046793      -6.41606649
C       -6.15987198      -5.15905276      -5.61806693
S       -4.51912835      -5.50280546      -5.05160120
O       -4.54251906      -6.53530195      -4.04317892
O       -3.57986190      -5.39900095      -6.14271927
C       -4.41003069      -4.01708957      -4.19745232
H       -0.31244428      -3.35282531      -1.95814627
H       -1.71551899      -4.79556802      -3.38268952
H       -3.44563863      -0.39087587      -1.79215094
H       -8.22371041      -2.48453170      -5.11726937
H       -9.65846220      -3.91251663      -6.54804148
H       -6.56212538      -6.93863345      -6.76560404
C       -9.06031152      -6.31074617      -7.57160296
C       -9.78076253      -6.98369968      -8.26623949
Br     -10.94567089      -8.07180858      -9.38940802
C       -1.79299377       1.79299377       1.79299377
C       -2.96925141       1.27422103       2.31859279
C       -3.78799536       2.06845141       3.12794590
C       -3.42114967       3.40287723       3.41404582
C       -2.22420267       3.90486395       2.86936169
C       -1.39843096       3.10650517       2.05409118
S       -1.93816725       5.56687611       3.33106659
C       -3.35319185       5.60742912       4.21845645
C       -3.97995450       6.65112435       5.00535979
C       -3.57006656       7.94768209       5.25053879
C       -4.38354336       8.75316339       6.06106075
C       -5.58381546       8.25586464       6.60979719
C       -6.00736029       6.95026821       6.36958548
C       -5.18754262       6.18062426       5.56882480
S       -5.47476370       4.49870247       5.10006883
O       -5.27108762       3.62165347       6.22825885
O       -6.55461834       4.42162446       4.14533933
C       -4.02838607       4.41825916       4.17792735
H       -3.26608996       0.24926544       2.10806046
H       -4.70769873       1.65151417       3.53456364
H       -0.47802063       3.50911569       1.64152912
H       -2.64831149       8.34300915       4.83419085
H       -4.07624699       9.77772493       6.26504839
H       -6.92764905       6.55412424       6.78458958
C       -6.38886406       9.11721332       7.43658327
C       -7.06309225       9.83859283       8.12901662
Br      -8.15326223      11.00500249       9.24862277
C        1.79299377      -1.79299377       1.79299377
C        2.99514619      -1.29172316       2.27519588
C        3.81426512      -2.08620618       3.08392138
C        3.42142650      -3.40306817       3.41357806
C        2.19852783      -3.88750978       2.91239070
C        1.37233678      -3.08886849       2.09782204
S        1.88273124      -5.52940832       3.42397039
C        3.31875278      -5.58415419       4.27617045
C        3.93914848      -6.62354194       5.07374822
C        3.50319206      -7.90247901       5.36261636
C        4.31679397      -8.70803998       6.17293354
C        5.54300219      -8.22826714       6.67820797
C        5.99296279      -6.94052515       6.39372603
C        5.17237338      -6.17036824       5.59425006
S        5.48967431      -4.50878139       5.07507930
O        5.33740005      -3.59860735       6.18499253
O        6.54608506      -4.48373067       4.09176639
C        4.02242702      -4.41423644       4.18790912
H        3.31217804      -0.28041542       2.03082240
H        4.75438819      -1.68307048       3.45631786
H        0.43171457      -3.47781833       1.71913254
H        2.56131166      -8.28421078       4.97998904
H        3.98915184      -9.71884851       6.41101997
H        6.93336369      -6.55797296       6.77502622
C        6.34719395      -9.08903130       7.50643539
C        7.02070455      -9.80992129       8.20007585
Br       8.10971423     -10.97553944       9.32163382
C       -0.00445707       0.01189536      -1.78238275
H       -0.66409135       0.67374010      -2.43557963
H        0.65740317      -0.63156657      -2.45157240
C       -0.90989263      -0.90692880      -0.91072765
C        0.90977584       0.90977584      -0.90977584
C       -0.00465871       1.77757030       0.00794375
H       -0.66225468       2.44313916      -0.64384735
H        0.64322798       2.43503045       0.67728295
C       -1.78241447       0.00034974      -0.00472694
H       -2.45427497      -0.65498947       0.64260836
H       -2.43311707       0.67328779      -0.65473579
C       -0.91132561       0.90220522       0.91563759
C       -0.01476271      -0.02253852       1.78660255
H       -0.67934791      -0.69751639       2.42135241
H        0.63392994       0.61504881       2.47327442
C        0.01484550      -1.77751727      -0.01636693
H        0.67870853      -2.42144646      -0.68295456
H       -0.62264859      -2.45592969       0.64226336
C        1.78714474       0.01002794       0.00389507
H        2.44202412       0.67113390       0.66197326
H        2.45385902      -0.65136977      -0.64189061
C        0.91606151      -0.90478549       0.90901405
