194
Properties=species:S:1:pos:R:3 pbc="F F F"
C        1.78181051       1.78181051      -1.78181051
C        1.32574913       2.43991720      -2.89573444
C        2.38154496       3.15223365      -3.54021812
C        3.59495933       3.00296281      -2.89176092
C        4.93378019       3.57937719      -3.26872674
N        5.60652218       2.81763910      -4.33686819
C        6.02800471       1.47552091      -3.87893461
C        6.85252133       0.71470637      -4.94389640
N        8.04801800       1.43315808      -5.43558821
C        7.61622909       2.77881472      -5.86897971
C        6.78040458       3.56696381      -4.83002115
C        9.12237615       1.51191565      -4.42877138
C        9.76128668       0.16474819      -4.11049058
C       10.80006288      -0.27824233      -4.82535467
C       11.39328767      -1.58077423      -4.49597127
O       12.35941214      -1.97649376      -5.14968915
N       10.80041703      -2.26362086      -3.44574210
C       11.29111131      -3.51466719      -3.08247338
C       10.76526590      -4.22046755      -2.06959522
Br      11.41260906      -5.89462961      -1.57457157
C        9.65654997      -3.66937830      -1.32838417
C        9.15540220      -2.46766711      -1.63883929
C        9.73705335      -1.68490605      -2.76437118
N        9.22886110      -0.52312527      -3.04417398
S        3.42425270       2.04748904      -1.47170378
H        0.30113549       2.41033597      -3.24474725
H        2.26154533       3.73616919      -4.44613057
H        5.58022444       3.68059800      -2.38731724
H        4.74478354       4.60125746      -3.62756864
H        5.14585359       0.86233479      -3.66744706
H        6.60609563       1.54854315      -2.94877175
H        7.11274903      -0.27965282      -4.56619749
H        6.20224905       0.51984577      -5.80706044
H        8.48607988       3.37662487      -6.16895035
H        7.01646127       2.66200604      -6.78179916
H        7.42932027       3.85766728      -3.99396142
H        6.43865799       4.49295625      -5.30867973
H        8.78818026       1.98459116      -3.49687085
H        9.91510016       2.16783824      -4.81592621
H       11.22070282       0.26318404      -5.66147106
H       12.12700176      -3.89283645      -3.66666199
H        9.23044066      -4.24413659      -0.51132843
H        8.32332419      -2.02551379      -1.10487039
C       -1.78181051      -1.78181051      -1.78181051
C       -1.64631467      -3.14401314      -1.87107295
C       -2.57957505      -3.69359285      -2.80082883
C       -3.38190346      -2.72674869      -3.38103090
C       -4.46468302      -2.90540997      -4.41179112
N       -3.93637258      -3.04333373      -5.78132316
C       -3.32666861      -1.78674398      -6.26904765
C       -2.88793776      -1.87331789      -7.74986845
N       -3.95648676      -2.26668846      -8.69358907
C       -4.57087507      -3.51034646      -8.18280200
C       -5.01500720      -3.46271708      -6.69966527
C       -4.96563949      -1.20936989      -8.88805380
C       -4.43246242       0.01669529      -9.62075832
C       -4.46948156       0.07769420     -10.95538785
C       -3.94684059       1.27131804     -11.63296216
O       -3.99708059       1.32695464     -12.86248159
N       -3.43591326       2.25808193     -10.80470695
C       -2.90345576       3.41378390     -11.36924564
C       -2.40198643       4.40778274     -10.62018988
Br      -1.68695983       5.95796470     -11.36355589
C       -2.41386692       4.28108945      -9.18277837
C       -2.92062991       3.19000528      -8.59594974
C       -3.47517189       2.08546950      -9.42681609
N       -3.95801347       1.03810886      -8.83000520
S       -3.03222352      -1.16807634      -2.74314567
H       -0.91728038      -3.72195279      -1.31698554
H       -2.65102245      -4.74778144      -3.04504120
H       -5.20202597      -2.09440171      -4.35171200
H       -5.00194720      -3.82674245      -4.14492000
H       -2.42676471      -1.56150686      -5.68736387
H       -4.01927494      -0.94527355      -6.13886203
H       -2.41862373      -0.93058733      -8.05008263
H       -2.08434782      -2.61773707      -7.82707037
H       -5.42330500      -3.79682461      -8.81152548
H       -3.83865445      -4.32058093      -8.30103110
H       -5.88059990      -2.79447416      -6.60587491
H       -5.35310822      -4.46791909      -6.41926666
H       -5.42943631      -0.89551643      -7.94468953
H       -5.78841788      -1.61980190      -9.49064484
H       -4.84486644      -0.72337205     -11.57711943
H       -2.91410848       3.46874369     -12.45546252
H       -2.00418772       5.08542004      -8.57886481
H       -2.94362178       3.06172070      -7.52077970
C       -1.78181051       1.78181051       1.78181051
C       -1.39587690       2.25544142       3.01008244
C       -2.43887499       3.01677336       3.61834838
C       -3.57359499       3.08682536       2.82926271
C       -4.87807675       3.77732006       3.12648730
N       -5.75382711       2.99191872       4.01528364
C       -6.25917316       1.76827962       3.35500744
C       -7.28419507       1.00255266       4.22437638
N       -8.44583113       1.80340452       4.66752864
C       -7.92695486       3.03193648       5.30513219
C       -6.89097713       3.82045219       4.46596023
C       -9.37520974       2.12030548       3.56754796
C      -10.11258778       0.90297935       3.02095833
C      -11.27218640       0.51468918       3.56029963
C      -11.95831482      -0.66293929       3.01310918
O      -13.03369814      -1.00679586       3.50570525
N      -11.31966243      -1.29516382       1.95803966
C      -11.89494684      -2.43077231       1.39474297
C      -11.32944230      -3.08154771       0.36649898
Br     -12.08902912      -4.60139828      -0.39507983
C      -10.08595400      -2.59223632      -0.17816185
C       -9.49927714      -1.50086836       0.32816559
C      -10.12520034      -0.77955693       1.47087507
N       -9.53216787       0.27486901       1.94287294
S       -3.33607511       2.27679839       1.33057203
H       -0.43043564       2.06418821       3.46159486
H       -2.36730739       3.48048322       4.59605449
H       -5.39802123       4.05090115       2.19921731
H       -4.62470826       4.72390118       3.62500020
H       -5.42934753       1.07904068       3.16724723
H       -6.70880349       2.01101026       2.38359677
H       -7.60258515       0.09380931       3.70289924
H       -6.76837869       0.63808363       5.12269294
H       -8.75704368       3.69494879       5.57966262
H       -7.45856289       2.74524495       6.25645862
H       -7.39838672       4.27639639       3.60616586
H       -6.51179254       4.64093375       5.08756768
H       -8.88127846       2.64684926       2.74151456
H      -10.13349756       2.82187577       3.94349129
H      -11.73019562       1.00961007       4.40555224
H      -12.83149245      -2.76560323       1.83493808
H       -9.62846347      -3.12276969      -1.00806129
H       -8.56567331      -1.10786835      -0.05512418
C        1.78181051      -1.78181051       1.78181051
C        1.79953899      -3.15165763       1.71020414
C        2.68784065      -3.70566736       2.68048872
C        3.30459475      -2.73491706       3.45017124
C        4.28604955      -2.91884737       4.57698719
N        3.63619603      -3.27257322       5.85226023
C        2.83427189      -2.15380205       6.39438629
C        2.25505772      -2.46052206       7.79554432
N        3.25701171      -2.84766951       8.81208307
C        4.06446674      -3.95045327       8.24910351
C        4.65385932      -3.68134258       6.84218763
C        4.10799165      -1.72019229       9.23487924
C        3.35938514      -0.65242775      10.02471256
C        3.24790561      -0.74596760      11.35330199
C        2.51935195       0.29739005      12.08652281
O        2.43265068       0.21236844      13.31232530
N        1.98569189       1.31563593      11.31248231
C        1.26385286       2.33386885      11.92893350
C        0.73031982       3.35089958      11.23497332
Br      -0.23725684       4.71824127      12.04804913
C        0.90868798       3.39687694       9.80374480
C        1.59987483       2.44236818       9.16906772
C        2.19023709       1.31213088       9.93841227
N        2.85369228       0.39944885       9.29566638
S        2.84249325      -1.15745954       2.94349274
H        1.20645249      -3.73376493       1.01600129
H        2.85716082      -4.76785932       2.81882496
H        4.92460922      -2.03317892       4.69035154
H        4.95353719      -3.74032939       4.27974307
H        1.98049662      -1.95764206       5.73749677
H        3.43245827      -1.23449399       6.43645826
H        1.64861612      -1.61468147       8.13599610
H        1.54141379      -3.28945516       7.69828631
H        4.87363906      -4.21764772       8.94036831
H        3.42473756      -4.84168712       8.19384179
H        5.43947311      -2.91912194       6.92235391
H        5.13603409      -4.60505203       6.49920785
H        4.62839397      -1.24991309       8.39133521
H        4.90528823      -2.10981705       9.88375933
H        3.64758748      -1.57076325      11.92700719
H        1.15326477       2.26093181      13.00849435
H        0.47287902       4.21917206       9.24392554
H        1.75117979       2.44515113       8.09665212
C       -0.00445707       0.01189536      -1.78238275
H       -0.66409135       0.67374010      -2.43557963
H        0.65740317      -0.63156657      -2.45157240
C       -0.90989263      -0.90692880      -0.91072765
C        0.90977584       0.90977584      -0.90977584
C       -0.00465871       1.77757030       0.00794375
H       -0.66225468       2.44313916      -0.64384735
H        0.64322798       2.43503045       0.67728295
C       -1.78241447       0.00034974      -0.00472694
H       -2.45427497      -0.65498947       0.64260836
H       -2.43311707       0.67328779      -0.65473579
C       -0.91132561       0.90220522       0.91563759
C       -0.01476271      -0.02253852       1.78660255
H       -0.67934791      -0.69751639       2.42135241
H        0.63392994       0.61504881       2.47327442
C        0.01484550      -1.77751727      -0.01636693
H        0.67870853      -2.42144646      -0.68295456
H       -0.62264859      -2.45592969       0.64226336
C        1.78714474       0.01002794       0.00389507
H        2.44202412       0.67113390       0.66197326
H        2.45385902      -0.65136977      -0.64189061
C        0.91606151      -0.90478549       0.90901405
