173
Properties=species:S:1:pos:R:3 pbc="F F F"
C        0.00000000       0.00000000       0.00000000
C        0.87190649       0.87190649      -0.87190649
C        0.41584510       1.53001318      -1.98583041
C        1.47164093       2.24232963      -2.63031410
C        2.68505530       2.09305879      -1.98185690
C        4.02387616       2.66947317      -2.35882271
N        4.69661816       1.90773507      -3.42696417
C        5.11810069       0.56561688      -2.96903058
C        5.94261731      -0.19519765      -4.03399238
N        7.13811397       0.52325405      -4.52568419
C        6.70632507       1.86891070      -4.95907569
C        5.87050056       2.65705978      -3.92011713
C        8.21247212       0.60201163      -3.51886736
C        8.85138266      -0.74515583      -3.20058655
C        9.89015886      -1.18814636      -3.91545064
C       10.48338365      -2.49067825      -3.58606724
O       11.44950812      -2.88639779      -4.23978513
N        9.89051301      -3.17352489      -2.53583807
C       10.38120729      -4.42457122      -2.17256936
C        9.85536187      -5.13037157      -1.15969120
Br      10.50270503      -6.80453363      -0.66466754
C        8.74664595      -4.57928232      -0.41848014
C        8.24549818      -3.37757114      -0.72893526
C        8.82714933      -2.59481007      -1.85446715
N        8.31895707      -1.43302929      -2.13426996
S        2.51434867       1.13758502      -0.56179976
H       -0.60876853       1.50043195      -2.33484322
H        1.35164131       2.82626517      -3.53622655
H        4.67032042       2.77069398      -1.47741322
H        3.83487952       3.69135344      -2.71766462
H        4.23594957      -0.04756924      -2.75754303
H        5.69619160       0.63863913      -2.03886772
H        6.20284501      -1.18955684      -3.65629346
H        5.29234502      -0.39005825      -4.89715641
H        7.57617585       2.46672084      -5.25904632
H        6.10655725       1.75210201      -5.87189513
H        6.51941625       2.94776325      -3.08405740
H        5.52875397       3.58305223      -4.39877571
H        7.87827624       1.07468714      -2.58696682
H        9.00519614       1.25793421      -3.90602219
H       10.31079880      -0.64671998      -4.75156703
H       11.21709774      -4.80274047      -2.75675797
H        8.32053663      -5.15404061       0.39857560
H        7.41342016      -2.93541782      -0.19496637
C       -0.87190649      -0.87190649      -0.87190649
C       -0.42669477      -2.01020830      -1.49478562
C       -1.45945752      -2.60293944      -2.28188769
C       -2.64381058      -1.88918497      -2.22697544
C       -3.94474639      -2.18102765      -2.92639801
N       -3.94892090      -1.74697864      -4.33541786
C       -3.91831177      -0.27324964      -4.46118676
C       -4.05718728       0.20234140      -5.92656616
N       -5.25659664      -0.29814176      -6.63231381
C       -5.28617429      -1.76816824      -6.47996892
C       -5.14100981      -2.28103944      -5.02562822
C       -6.50497455       0.31767367      -6.14605023
C       -6.62577986       1.80007440      -6.48110792
C       -7.17231303       2.19122102      -7.63637113
C       -7.27341803       3.62633819      -7.93169279
O       -7.79112200       3.98016706      -8.99194052
N       -6.76921015       4.47735285      -6.96096890
C       -6.80947478       5.85268262      -7.17241327
C       -6.34511105       6.72741886      -6.26698931
Br      -6.39321617       8.56885809      -6.53848086
C       -5.78651660       6.23257334      -5.03190051
C       -5.73205348       4.91847171      -4.78328052
C       -6.24510535       3.94707412      -5.78877517
N       -6.17712030       2.67817884      -5.52125628
S       -2.50433780      -0.53930654      -1.17008911
H        0.58051425      -2.39832718      -1.40869371
H       -1.33710621      -3.50356793      -2.87345889
H       -4.79161968      -1.74995803      -2.37684990
H       -4.08131109      -3.27136663      -2.89121985
H       -2.95978008       0.10985583      -4.09599911
H       -4.70723984       0.18318757      -3.84964618
H       -3.99914639       1.29515144      -5.96558668
H       -3.17523786      -0.14027207      -6.48393326
H       -6.20390358      -2.17571611      -6.92232333
H       -4.46574165      -2.18518046      -7.07963228
H       -6.05193853      -2.03369136      -4.46560700
H       -5.07325351      -3.37532113      -5.06200726
H       -6.64849041       0.17621354      -5.06765333
H       -7.35400571      -0.19599653      -6.61915030
H       -7.52769391       1.50173385      -8.38968579
H       -7.23834645       6.18301612      -8.11578491
H       -5.40811647       6.94243231      -4.30223627
H       -5.31797613       4.51324355      -3.86823613
C       -0.87190649       0.87190649       0.87190649
C       -0.37794497       1.77649604       1.77724768
C       -1.43458288       2.42563078       2.48407100
C       -2.68565499       1.98516915       2.08914684
C       -4.03363620       2.41273048       2.60580536
N       -4.39470172       1.75938450       3.87723118
C       -4.63667649       0.30997296       3.70609870
C       -5.14605494      -0.36567271       5.00102981
N       -6.36249178       0.24167827       5.58288216
C       -6.11477291       1.69174661       5.72779194
C       -5.59532868       2.40025607       4.45209272
C       -7.57188436      -0.01930082       4.78076757
C       -8.00369590      -1.48145466       4.78457213
C       -8.82975557      -1.94149105       5.72919863
C       -9.22663419      -3.35535621       5.70749466
O       -9.99945176      -3.76933329       6.57277699
N       -8.68613127      -4.11634199       4.68303692
C       -8.99737219      -5.47078814       4.60262138
C       -8.51246978      -6.25752522       3.62973694
Br      -8.92124474      -8.07023625       3.51183046
C       -7.64133175      -5.68651865       2.63103067
C       -7.31910617      -4.38781986       2.66557599
C       -7.85506176      -3.51467894       3.74642358
N       -7.52351973      -2.25918127       3.75585927
S       -2.56305145       0.83080057       0.81988143
H        0.67626770       1.96202407       1.94075026
H       -1.28556799       3.17128277       3.25728227
H       -4.81192249       2.25952609       1.84697903
H       -3.97623566       3.49841917       2.76924274
H       -3.70187277      -0.19233148       3.43638207
H       -5.35075970       0.13093839       2.89200037
H       -5.28042374      -1.43852998       4.82768786
H       -4.35026971      -0.30622255       5.75539603
H       -7.02170197       2.19651228       6.08372877
H       -5.37447158       1.82835520       6.52772762
H       -6.40263498       2.43903764       3.70956428
H       -5.35454001       3.43653711       4.71950478
H       -7.46897964       0.32629271       3.74465785
H       -8.40100253       0.56887042       5.19927959
H       -9.20970239      -1.33013557       6.53607903
H       -9.65693512      -5.86051200       5.37469211
H       -7.24734843      -6.32613236       1.84670436
H       -6.66703364      -3.92756169       1.93349676
C        0.87190649      -0.87190649       0.87190649
C        0.80393111      -2.24198310       0.88577447
C        1.71719335      -2.79238877       1.83470254
C        2.43759627      -1.81852378       2.50385093
C        3.47543718      -1.99683048       3.57990439
N        2.88736812      -2.23278490       4.91116438
C        2.18884100      -1.03559899       5.42830816
C        1.68185748      -1.22171606       6.87783850
N        2.72114148      -1.61030110       7.85560963
C        3.42481253      -2.79314276       7.31635616
C        3.93934642      -2.64547616       5.86285489
C        3.66233288      -0.51558875       8.15542948
C        3.02950056       0.64209453       8.91940735
C        2.99655684       0.63460956      10.25551586
C        2.37869205       1.76336178      10.96344236
O        2.36446605       1.75671542      12.19514483
N        1.85859514       2.76555730      10.15978836
C        1.23857911       3.86194039      10.75256672
C        0.72357926       4.86766003      10.02876227
Br      -0.10819770       6.33896366      10.81000031
C        0.81388140       4.81746996       8.58943233
C        1.40598638       3.78542317       7.97629910
C        1.97564490       2.66780691       8.77896842
N        2.54209112       1.67869862       8.15680524
S        2.03874432      -0.24788137       1.92710776
H        0.13487720      -2.82567992       0.26594951
H        1.83168259      -3.85307349       2.02937694
H        4.17119818      -1.14797206       3.59925737
H        4.07305752      -2.87487187       3.29596818
H        1.30851622      -0.82531690       4.81209024
H        2.84188301      -0.15490693       5.37690851
H        1.14921798      -0.32069226       7.19967138
H        0.91566758      -2.00836971       6.87540589
H        4.25865887      -3.06934899       7.97393516
H        2.73121538      -3.64403100       7.35530801
H        4.77220953      -1.93082927       5.84819809
H        4.34341332      -3.61640224       5.55076634
H        4.15552316      -0.12979704       7.25461000
H        4.47442818      -0.91552943       8.77919493
H        3.38201940      -0.17828832      10.85533813
H        1.19206290       3.86017638      11.83922871
H        0.39315326       5.63097391       8.00574108
H        1.48936212       3.71515502       6.89876161
