165
Properties=species:S:1:pos:R:3 pbc="F F F"
C        0.00000000       0.00000000       0.00000000
C        0.88128802       0.88128802      -0.88128802
C        0.42371817       2.13005276      -1.29034563
C        1.23553352       2.93548873      -2.09567313
C        2.50660449       2.50004026      -2.49793291
C        2.95063683       1.24468330      -2.07569939
C        2.14045523       0.43526329      -1.27029629
N        3.27023894       3.38852597      -3.28908703
C        4.53228449       3.16708130      -3.81510384
O        5.13624429       2.09901232      -3.77974174
C        5.21364095       4.33638088      -4.47129433
C        4.70906362       5.64369245      -4.46757120
C        5.43977925       6.69981455      -5.04029834
C        6.70075438       6.47547252      -5.60903458
C        7.19178875       5.16262120      -5.63469528
C        6.45862929       4.10896510      -5.07534954
C        7.58302703       7.56069341      -6.16346427
O        8.58293344       7.22371297      -6.78905165
N        7.20615671       8.86674632      -5.89629408
C        7.93286581      10.04488162      -6.17957129
C        9.20780686      10.06569360      -6.74854405
C        9.87810536      11.27889075      -6.94828043
C        9.27090991      12.47721626      -6.58472139
C        7.99577816      12.47532336      -6.02856316
C        7.33115786      11.26187565      -5.82627381
H       -0.55752696       2.48654212      -0.98856428
H        0.85681157       3.90796585      -2.39878914
H        3.92925180       0.86196497      -2.34828175
H        2.50922486      -0.53718670      -0.95406096
H        2.81800279       4.26596701      -3.48762884
H        3.75934700       5.89578910      -4.00930389
H        4.98496099       7.68380680      -5.01398468
H        8.16576988       4.94784356      -6.07404567
H        6.88460318       3.10610003      -5.09746603
H        6.34304896       9.02269492      -5.40271383
H        9.72134707       9.15335558      -7.03568165
H       10.87514619      11.26949919      -7.38125667
H        7.51334493      13.40654792      -5.74392561
H        6.33775345      11.28619209      -5.38600596
C        9.96609752      13.72339833      -6.77796846
C       10.54831714      14.76707581      -6.93981289
Br      11.48971702      16.45461404      -7.20150163
C       -0.88128802      -0.88128802      -0.88128802
C       -2.13096826      -0.42460805      -1.28854025
C       -2.93420500      -1.23428572      -2.09820466
C       -2.49642803      -2.50309334      -2.50505629
C       -1.23801894      -2.94415895      -2.08884162
C       -0.43156848      -2.13686381      -1.27758251
N       -3.36071562      -3.24320678      -3.34392954
C       -3.15025144      -4.51592556      -3.84829262
O       -2.22318262      -5.25694006      -3.53487568
C       -4.13525177      -5.01813984      -4.86792456
C       -5.15999856      -4.23890445      -5.42142425
C       -5.99774623      -4.75735620      -6.42478970
C       -5.81461652      -6.05839045      -6.91225451
C       -4.80557389      -6.84473234      -6.33879900
C       -3.97930809      -6.33260034      -5.33103550
C       -6.60861083      -6.65758563      -8.04098825
O       -6.47689486      -7.85701279      -8.26179042
N       -7.41186135      -5.79198234      -8.76535342
C       -8.13543512      -6.07684945      -9.94503415
C       -8.10891738      -7.30578515     -10.60734198
C       -8.81785062      -7.48593006     -11.80149587
C       -9.56189446      -6.43716465     -12.33378845
C       -9.60957234      -5.21021659     -11.67987577
C       -8.89685619      -5.03231638     -10.49013475
H       -2.48820511       0.55591050      -0.98528483
H       -3.90441860      -0.85336357      -2.40578439
H       -0.84468098      -3.91245145      -2.38236607
H        0.54418045      -2.50242680      -0.96785277
H       -4.22227255      -2.77553100      -3.57379509
H       -5.33232853      -3.21165319      -5.12045826
H       -6.77816463      -4.10466050      -6.79992733
H       -4.63689322      -7.86352055      -6.68724535
H       -3.19326174      -6.96932594      -4.92558155
H       -7.46827012      -4.83212008      -8.46806752
H       -7.53235685      -8.14570713     -10.23232032
H       -8.77214810      -8.44767599     -12.30607796
H      -10.18986843      -4.38667456     -12.08727548
H       -8.94622525      -4.06326357     -10.00046267
C      -10.27982273      -6.61888006     -13.56876153
C      -10.88108765      -6.77106670     -14.60305149
Br     -11.85328218      -7.01713965     -16.27541087
C       -0.88128802       0.88128802       0.88128802
C       -2.10096152       0.39812233       1.34503271
C       -2.90420576       1.20800930       2.15448031
C       -2.49637142       2.50337648       2.50482976
C       -1.26774489       2.97092750       2.03234712
C       -0.46142259       2.16347141       1.22112080
N       -3.35730661       3.24277068       3.34777466
C       -3.17349178       4.53792473       3.80305313
O       -2.28259133       5.29776574       3.43464128
C       -4.14111248       5.04183462       4.83836908
C       -5.12047874       4.24871557       5.45113296
C       -5.94208469       4.77309286       6.46471459
C       -5.78707779       6.09507231       6.90311138
C       -4.82428755       6.89410688       6.27071080
C       -4.01450683       6.37552045       5.25291665
C       -6.56361380       6.70574947       8.03782144
O       -6.46522778       7.91558247       8.21488781
N       -7.31325523       5.83932215       8.81661973
C       -8.00720778       6.14002447      10.01008647
C       -8.00052016       7.39077007      10.63075428
C       -8.67585169       7.58782909      11.84159576
C       -9.36644057       6.53390307      12.43250391
C       -9.39405863       5.28473644      11.82086962
C       -8.71488020       5.09019140      10.61423571
H       -2.43467507      -0.60316203       1.08606640
H       -3.85051538       0.80626394       2.50678724
H       -0.89787519       3.96084730       2.28077603
H        0.49086330       2.54998236       0.86698006
H       -4.19468922       2.75528925       3.62162017
H       -5.26784062       3.20684838       5.18975098
H       -6.68745875       4.10832708       6.88696663
H       -4.67873986       7.92899978       6.57991948
H       -3.26396066       7.02349639       4.80071218
H       -7.34697179       4.86866889       8.55281705
H       -7.46507900       8.23592188      10.20938342
H       -8.64614241       8.56699344      12.31276621
H       -9.93272824       4.45691489      12.27417533
H       -8.74752049       4.10411071      10.15832031
C      -10.04948085       6.73361202      13.68437144
C      -10.62152707       6.90086827      14.73281050
Br     -11.54647744       7.17130747      16.42804779
C        0.88128802      -0.88128802       0.88128802
C        0.53627926      -2.21211415       1.09572315
C        1.34802259      -3.01685192       1.90182087
C        2.50674473      -2.49908131       2.49875162
C        2.83901414      -1.16161545       2.27038992
C        2.02841112      -0.35276132       1.46484236
N        3.28246979      -3.38924609       3.27613606
C        4.44478381      -3.09855628       3.97112955
O        4.91590467      -1.97536921       4.12372447
C        5.18764642      -4.25842375       4.57524600
C        4.84763410      -5.60233204       4.37036112
C        5.63453300      -6.63514687       4.91021227
C        6.79085350      -6.34686088       5.64754710
C        7.11447680      -5.00158374       5.87304469
C        6.32402617      -3.97307767       5.34584009
C        7.73279365      -7.38991089       6.18448017
O        8.61178924      -7.02535326       6.95855556
N        7.54695549      -8.68711283       5.73512880
C        8.37569088      -9.80588856       5.97573929
C        9.57531291      -9.75807003       6.68866157
C       10.36157502     -10.90743843       6.83626310
C        9.94580184     -12.11144614       6.27559958
C        8.74689534     -12.17950043       5.57326891
C        7.96648095     -11.02896727       5.42385911
H       -0.35672481      -2.63294342       0.64136083
H        1.05890937      -4.05377848       2.05087870
H        3.72939753      -0.71166482       2.69843616
H        2.30911479       0.68465065       1.30163497
H        2.92058450      -4.32767570       3.32333844
H        3.98997068      -5.89789304       3.77657627
H        5.30708925      -7.65190965       4.72375356
H        8.00261557      -4.73796663       6.44707691
H        6.62118019      -2.94028159       5.52670745
H        6.76697054      -8.87422947       5.12725771
H        9.94133177      -8.83714774       7.13190478
H       11.29790729     -10.84326906       7.38472570
H        8.41358306     -13.11602203       5.13421338
H        7.03631915     -11.10659649       4.86703586
C       10.76129869     -13.28991178       6.41625385
C       11.44427730     -14.27687676       6.53405179
Br      12.54859594     -15.87271565       6.72452111
