158
Properties=species:S:1:pos:R:3 pbc="F F F"
C        1.79157190       1.79157190      -1.79157190
C        3.15093426       1.90106399      -1.51876411
C        3.95596343       2.70201799      -2.33161719
C        3.40833469       3.39619369      -3.42059059
Br       4.62481099       4.43706774      -4.44087495
C        2.03841868       3.28518817      -3.68204495
C        1.22987679       2.47654913      -2.86569738
S        1.26128746       4.10431946      -5.05022238
O        1.95408044       3.68093507      -6.24876407
O       -0.16954801       3.91351947      -4.92983849
N        1.57084011       5.74950408      -4.77567346
C        1.44232459       6.62711955      -5.97763874
C       -0.02420858       7.01966790      -6.24300088
N       -0.61510861       7.70869978      -5.07699362
C       -0.51339763       6.85218860      -3.87646870
C        0.92895570       6.38410653      -3.58772109
C       -2.02994841       8.10516161      -5.31356085
C       -2.35284012       9.00622677      -6.52494583
F       -2.57105925       8.26644079      -7.63674123
F       -3.47429791       9.72924573      -6.29313256
F       -1.35859768       9.87916916      -6.79882884
H        3.59576664       1.36516126      -0.68383583
H        5.01972971       2.77287171      -2.10835470
H        0.16607384       2.37059589      -3.07181520
H        1.87468629       6.14545158      -6.86042880
H        2.04607564       7.52690588      -5.80190066
H       -0.03343515       7.68540966      -7.11303584
H       -0.61059388       6.13063749      -6.50373413
H       -0.86138464       7.41602246      -3.00222783
H       -1.17360979       5.98331163      -3.97311801
H        1.54522136       7.24477521      -3.29699257
H        0.93814739       5.70100971      -2.73259054
H       -2.36222162       8.65153672      -4.42226623
H       -2.66281237       7.21061858      -5.38435740
C       -1.79157190      -1.79157190      -1.79157190
C       -1.22949010      -2.47980266      -2.86146961
C       -2.03702104      -3.29140444      -3.66117313
C       -3.40841664      -3.42054960      -3.39615273
Br      -4.37702564      -4.56480843      -4.56091960
C       -3.96543627      -2.71821877      -2.32199676
C       -3.15162414      -1.90450719      -1.51599197
S       -5.68280630      -2.83873473      -1.89428827
O       -5.96900304      -4.24064151      -1.67413504
O       -5.95231094      -1.86790073      -0.85359828
N       -6.49295762      -2.31380402      -3.28925601
C       -7.92225446      -2.73660654      -3.38822187
C       -8.84967784      -1.80459612      -2.58418624
N       -8.72825353      -0.40377367      -3.03855758
C       -7.32291698       0.04297927      -2.93532195
C       -6.33761889      -0.88249867      -3.68066576
C       -9.62185098       0.51425793      -2.28118100
C      -11.13784973       0.22262104      -2.26310380
F      -11.45900231      -0.61939967      -1.25372079
F      -11.83892970       1.36600337      -2.07515406
F      -11.57085430      -0.33197334      -3.41657268
H       -0.16725968      -2.39865399      -3.07885006
H       -1.58076189      -3.82840501      -4.49178921
H       -3.57306998      -1.36775599      -0.66765896
H       -8.04584827      -3.77383141      -3.06088699
H       -8.20346678      -2.72219095      -4.44922445
H       -9.87664932      -2.15636138      -2.73199963
H       -8.62652731      -1.88365216      -1.51359827
H       -7.23165883       1.04562685      -3.37083366
H       -7.02838128       0.12922841      -1.88366698
H       -6.51190427      -0.81283309      -4.76225178
H       -5.30903234      -0.54642818      -3.51628713
H       -9.50234665       1.51197203      -2.72120671
H       -9.28385329       0.59094308      -1.23925339
C       -1.79157190       1.79157190       1.79157190
C       -2.44581930       2.88693068       1.23801239
C       -3.25757975       3.68672274       2.04529612
C       -3.42079574       3.39641186       3.40791137
Br      -4.56095902       4.56476982       4.37702483
C       -2.75243568       2.29660536       3.95661076
C       -1.93856405       1.49059933       3.14295992
S       -2.91759949       1.83640499       5.66182482
O       -4.32940512       1.63981381       5.91456066
O       -1.97414969       0.77032456       5.92933570
N       -2.38125590       3.20318693       6.51157482
C       -2.83175498       3.28166390       7.93366399
C       -1.93602805       2.43946479       8.86296736
N       -0.52395370       2.86681932       8.77981176
C       -0.05010332       2.78308223       7.38207412
C       -0.93929249       3.56766413       6.39382669
C        0.35946443       2.07224498       9.67599350
C        0.03586182       2.02920769      11.18498661
F       -0.83320439       1.03129401      11.46762437
F        1.16023244       1.80304632      11.90526651
F       -0.50391468       3.18491160      11.63057404
H       -2.33802446       3.12429006       0.18244921
H       -3.76778005       4.53756943       1.59560663
H       -1.42824769       0.62276201       3.55747524
H       -3.87782955       2.97363905       8.02909808
H       -2.80148464       4.33614630       8.23725124
H       -2.30610108       2.57352751       9.88538174
H       -2.03232243       1.37556367       8.61589163
H        0.96294927       3.19929828       7.32051663
H        0.02071823       1.73611020       7.06742788
H       -0.85113669       4.64375655       6.59209590
H       -0.58521320       3.41740478       5.36912967
H        1.36826919       2.49365522       9.58619530
H        0.42183484       1.03608700       9.31791145
C        1.79157190      -1.79157190       1.79157190
C        1.61054404      -1.78969609       3.17052224
C        2.41325487      -2.60295693       3.97338681
C        3.39915401      -3.42220533       3.40375963
Br       4.40602432      -4.47935631       4.61737305
C        3.57817685      -3.41122415       2.01625080
C        2.76793568      -2.59517545       1.20901216
S        4.78084910      -4.43118328       1.20379693
O        4.50188125      -5.80064340       1.58125493
O        4.81474684      -4.05317437      -0.19411125
N        6.25756002      -3.95134839       1.88710924
C        7.37245590      -4.93461590       1.74001108
C        8.05399664      -4.82216344       0.36230012
N        8.57842019      -3.45998718       0.13217742
C        7.48870529      -2.46901654       0.25753784
C        6.73365222      -2.56676038       1.60037072
C        9.24904650      -3.32975160      -1.19002405
C       10.42143231      -4.27813927      -1.52123910
F        9.97410278      -5.43023182      -2.07221183
F       11.26071966      -3.70145977      -2.41409905
F       11.15058418      -4.59864781      -0.42983167
H        0.84687529      -1.16732537       3.63056307
H        2.25528809      -2.59457930       5.05108872
H        2.88855237      -2.59297129       0.12696128
H        7.01651130      -5.95605744       1.90799794
H        8.10118949      -4.73689523       2.53679746
H        8.87618367      -5.54596498       0.34286169
H        7.35016960      -5.10355296      -0.42994483
H        7.91129826      -1.45924199       0.18632539
H        6.78306546      -2.57365591      -0.57390152
H        7.39890820      -2.26741518       2.42066575
H        5.89780980      -1.86025890       1.61367895
H        9.64864057      -2.30973229      -1.24679153
H        8.50871514      -3.41945008      -1.99600162
C       -0.00445707       0.01189536      -1.78238275
H       -0.66409135       0.67374010      -2.43557963
H        0.65740317      -0.63156657      -2.45157240
C       -0.90989263      -0.90692880      -0.91072765
C        0.90977584       0.90977584      -0.90977584
C       -0.00465871       1.77757030       0.00794375
H       -0.66225468       2.44313916      -0.64384735
H        0.64322798       2.43503045       0.67728295
C       -1.78241447       0.00034974      -0.00472694
H       -2.45427497      -0.65498947       0.64260836
H       -2.43311707       0.67328779      -0.65473579
C       -0.91132561       0.90220522       0.91563759
C       -0.01476271      -0.02253852       1.78660255
H       -0.67934791      -0.69751639       2.42135241
H        0.63392994       0.61504881       2.47327442
C        0.01484550      -1.77751727      -0.01636693
H        0.67870853      -2.42144646      -0.68295456
H       -0.62264859      -2.45592969       0.64226336
C        1.78714474       0.01002794       0.00389507
H        2.44202412       0.67113390       0.66197326
H        2.45385902      -0.65136977      -0.64189061
C        0.91606151      -0.90478549       0.90901405
