178
Properties=species:S:1:pos:R:3 pbc="F F F"
C        1.79148004       1.79148004      -1.79148004
C        1.37825517       3.08376760      -2.10913954
C        2.18985013       3.89089042      -2.90929370
C        3.41888905       3.40981166      -3.38314352
C        3.81380512       2.10012769      -3.07996701
C        3.00103922       1.29396360      -2.27712216
C        4.25613001       4.32253434      -4.21555547
O        3.68341131       5.14750360      -4.91637913
N        5.62351682       4.16267193      -4.06888300
C        6.64091267       4.91241624      -4.69469834
C        6.40266870       5.94424857      -5.59875949
C        7.46924904       6.65473730      -6.16005552
C        8.79225634       6.34594196      -5.82999987
C        9.03515455       5.31086831      -4.93187862
C        7.96604805       4.59778461      -4.37099148
N        9.79445044       7.13239714      -6.43158852
C       11.16310769       7.04761793      -6.25271445
O       11.76624622       6.20901653      -5.59460541
C       11.95212383       8.09084580      -6.97905266
C       11.43703526       9.37223480      -7.23049805
C       12.20177647      10.31373486      -7.92545636
C       13.48712561       9.98298892      -8.35177278
Br      14.52010282      11.26249279      -9.28356245
C       14.01841244       8.72206294      -8.08666687
C       13.25227850       7.77746776      -7.39745965
H        0.43141524       3.47257296      -1.74303717
H        1.86530730       4.89992643      -3.15900062
H        4.73329285       1.68057981      -3.47907075
H        3.31433073       0.27940236      -2.04303949
H        5.94288376       3.48697113      -3.38872190
H        5.39724759       6.23366544      -5.88638800
H        7.23753777       7.46060772      -6.85162558
H       10.04400359       5.02956213      -4.64558901
H        8.19556505       3.79455893      -3.67551248
H        9.45768181       7.81279518      -7.09697095
H       10.45616004       9.66961847      -6.87015973
H       11.79124922      11.30191597      -8.11830276
H       15.02482040       8.46473851      -8.40695391
H       13.67124879       6.79442235      -7.18857337
C       -1.79148004      -1.79148004      -1.79148004
C       -3.09339405      -1.39164016      -2.08612810
C       -3.89522601      -2.19587851      -2.89892973
C       -3.39214877      -3.39432986      -3.42536559
C       -2.09075664      -3.80077524      -3.10236795
C       -1.28855064      -2.99351282      -2.29006151
C       -4.28474426      -4.20358519      -4.30589038
O       -5.49054812      -4.16039398      -4.09635194
N       -3.64103974      -4.89821879      -5.31581321
C       -4.23619690      -5.70067056      -6.31115979
C       -5.60582190      -5.93210688      -6.40774796
C       -6.11931551      -6.72477741      -7.43994894
C       -5.27400947      -7.30179901      -8.39238968
C       -3.90368001      -7.07854430      -8.29567716
C       -3.38923003      -6.28562598      -7.25996813
N       -5.88888160      -8.06541727      -9.40413723
C       -5.28468348      -8.71185392     -10.46690268
O       -4.08223313      -8.80908248     -10.67855256
C       -6.23446505      -9.37093862     -11.41661862
C       -7.52415134      -8.86738693     -11.64822984
C       -8.38619035      -9.52164236     -12.53313498
C       -7.95428927     -10.66634139     -13.20125665
Br      -9.12083377     -11.54225544     -14.40306885
C       -6.66757188     -11.16176684     -12.99780353
C       -5.80678103     -10.51215773     -12.10826715
H       -3.49435843      -0.46170663      -1.69096031
H       -4.91331212      -1.88391929      -3.12700293
H       -1.69320098      -4.75084182      -3.44890060
H       -0.27847343      -3.31303910      -2.04526005
H       -2.64287815      -4.76922350      -5.40647515
H       -6.31064534      -5.50428349      -5.70237221
H       -7.19566025      -6.86914433      -7.48496649
H       -3.20472930      -7.50668386      -9.00774156
H       -2.31346289      -6.13619055      -7.21598302
H       -6.88807956      -8.17192064      -9.30744774
H       -7.86896988      -7.95246703     -11.17450133
H       -9.38445986      -9.12514243     -12.70186565
H       -6.32319405     -12.04713229     -13.52618648
H       -4.80087648     -10.89934377     -11.95402426
C       -1.79148004       1.79148004       1.79148004
C       -1.29946911       3.00576887       2.26592433
C       -2.11036086       3.81392608       3.06574731
C       -3.41626537       3.41300242       3.38257644
C       -3.89302045       2.17845232       2.92242705
C       -3.08062703       1.37136838       2.12012956
C       -4.24646820       4.32551228       4.22223934
O       -3.67362226       5.02778395       5.04588783
N       -5.60229566       4.31039159       3.94238449
C       -6.60560657       5.09650153       4.54591915
C       -6.36581788       6.01814231       5.56171655
C       -7.41515761       6.77564621       6.09323804
C       -8.72243710       6.62458180       5.62117927
C       -8.96769079       5.69965395       4.61055674
C       -7.91611128       4.93929992       4.07941294
N       -9.70516092       7.44775322       6.20552196
C      -11.05262997       7.51001265       5.90079746
O      -11.66090852       6.79340733       5.11555231
C      -11.81350890       8.55656796       6.65194543
C      -11.21511378       9.75608849       7.06856585
C      -11.95778767      10.70218517       7.78099484
C      -13.30189038      10.45985320       8.06014374
Br     -14.30372136      11.74610442       9.01633228
C      -13.91325990       9.28336153       7.63052082
C      -13.17002402       8.33356156       6.92362033
H       -0.29172742       3.33276259       2.02253535
H       -1.72447656       4.76173309       3.43802469
H       -4.87947064       1.81548583       3.19798694
H       -3.45732837       0.41564637       1.76379784
H       -5.91288421       3.73013360       3.17555898
H       -5.37109446       6.18402519       5.96218138
H       -7.18123694       7.49236048       6.87617365
H       -9.96523457       5.54202449       4.21189567
H       -8.14725225       4.22533919       3.29304503
H       -9.37549573       8.03229442       6.95965778
H      -10.18213881       9.98867442       6.82512501
H      -11.48302620      11.62605299       8.10238876
H      -14.96423695       9.09642735       7.83584852
H      -13.65117798       7.41699044       6.58607609
C        1.79148004      -1.79148004       1.79148004
C        3.11495470      -1.42639930       2.02980831
C        3.91707831      -2.23027688       2.84267906
C        3.39319857      -3.39324309       3.42540257
C        2.06907283      -3.76586513       3.15896186
C        1.26669103      -2.95893803       2.34649592
C        4.28810734      -4.20298438       4.30312810
O        5.48691978      -4.20737462       4.05299964
N        3.65651927      -4.84215918       5.35639330
C        4.25841486      -5.63131812       6.35829427
C        5.62223368      -5.90556811       6.41787496
C        6.14411886      -6.68099750       7.45892549
C        5.31305116      -7.19776288       8.45738412
C        3.94825738      -6.93166576       8.39797833
C        3.42530658      -6.15607109       7.35344647
N        5.93646121      -7.94826107       9.47371382
C        5.34769268      -8.53890028      10.57684712
O        4.15053726      -8.58853204      10.83079886
C        6.30696185      -9.19830774      11.51675270
C        7.61948059      -8.73127475      11.68901277
C        8.48907439      -9.38501288      12.56688042
C        8.04282866     -10.49206276      13.28699588
Br       9.22005102     -11.36714604      14.47896100
C        6.73449111     -10.95015945      13.14249169
C        5.86583612     -10.30125582      12.26011397
H        3.53249846      -0.52392340       1.59060350
H        4.95192248      -1.94557460       3.02673727
H        1.65263545      -4.69015461       3.55015334
H        0.23903536      -3.25201540       2.14572182
H        2.66672928      -4.67666058       5.47518693
H        6.31644108      -5.52502994       5.67583002
H        7.21608287      -6.86006004       7.47362816
H        3.26013165      -7.31249960       9.14652349
H        2.35411985      -5.97193143       7.33958519
H        6.92781725      -8.09152430       9.34810638
H        7.97779905      -7.84446574      11.17367346
H        9.50488096      -9.01713160      12.68945539
H        6.37942216     -11.80567728      13.71141338
H        4.84319591     -10.65910287      12.15194574
C       -0.00445707       0.01189536      -1.78238275
H       -0.66409135       0.67374010      -2.43557963
H        0.65740317      -0.63156657      -2.45157240
C       -0.90989263      -0.90692880      -0.91072765
C        0.90977584       0.90977584      -0.90977584
C       -0.00465871       1.77757030       0.00794375
H       -0.66225468       2.44313916      -0.64384735
H        0.64322798       2.43503045       0.67728295
C       -1.78241447       0.00034974      -0.00472694
H       -2.45427497      -0.65498947       0.64260836
H       -2.43311707       0.67328779      -0.65473579
C       -0.91132561       0.90220522       0.91563759
C       -0.01476271      -0.02253852       1.78660255
H       -0.67934791      -0.69751639       2.42135241
H        0.63392994       0.61504881       2.47327442
C        0.01484550      -1.77751727      -0.01636693
H        0.67870853      -2.42144646      -0.68295456
H       -0.62264859      -2.45592969       0.64226336
C        1.78714474       0.01002794       0.00389507
H        2.44202412       0.67113390       0.66197326
H        2.45385902      -0.65136977      -0.64189061
C        0.91606151      -0.90478549       0.90901405
