181
Properties=species:S:1:pos:R:3 pbc="F F F"
C        0.00000000       0.00000000       0.00000000
C        0.88176776       0.88176776      -0.88176776
C        1.09123517       2.21749807      -0.53563058
C        1.90230491       3.02680862      -1.33785323
C        2.49689249       2.49476595      -2.48992271
C        2.29107850       1.14799395      -2.82055623
C        1.47904064       0.34220239      -2.01948352
C        3.38062947       3.31138278      -3.37027726
O        4.32840894       2.74970837      -3.90537121
N        2.98189018       4.62708496      -3.54031218
C        3.61751966       5.62733717      -4.33187153
C        4.91676613       5.42738620      -4.80572916
C        5.53686520       6.37839139      -5.59967740
C        4.86029467       7.54401638      -5.94451955
C        3.54450822       7.81853833      -5.49737059
C        2.83004535       9.01320690      -5.85843411
C        1.56221853       9.24681807      -5.31972690
C        0.96956565       8.32601880      -4.47063779
C        1.63388490       7.14743123      -4.14967903
C        2.92671972       6.84830001      -4.64306818
N        3.40568084       9.93281104      -6.78499269
C        2.86765502      11.11891950      -7.25620785
O        1.78818903      11.61399633      -6.95388893
C        3.69299272      11.84174752      -8.26872511
C        3.02572359      12.58095186      -9.25722749
C        3.74805392      13.28732212     -10.22158501
C        5.14053515      13.26150170     -10.19338175
Br       6.12152937      14.22176356     -11.49266729
C        5.81639642      12.54246846      -9.20681343
C        5.09416756      11.83556223      -8.23900131
H        0.63876671       2.63135508       0.36244780
H        2.08689189       4.05366606      -1.03340973
H        2.76531263       0.72447861      -3.70455806
H        1.32684234      -0.70016352      -2.28832510
H        2.07160797       4.85450744      -3.17510403
H        5.48779101       4.53831706      -4.55744193
H        6.55099758       6.20722761      -5.95243441
H        5.41286136       8.24339845      -6.56265878
H        0.98946330      10.13783159      -5.55201348
H       -0.02142063       8.52378100      -4.06923218
H        1.09996617       6.47260736      -3.48978530
H        4.26027203       9.63434539      -7.22499480
H        1.93714656      12.60981824      -9.27550405
H        3.21543061      13.85535568     -10.98026446
H        6.90340528      12.53883914      -9.17578748
H        5.64035109      11.31935056      -7.45468089
C       -0.88176776      -0.88176776      -0.88176776
C       -1.13757194      -2.20120516      -0.50558672
C       -1.94883206      -3.01027109      -1.30786361
C       -2.49702189      -2.49457379      -2.48998547
C       -2.24498075      -1.16357321      -2.85107473
C       -1.43281995      -0.35808177      -2.04982482
C       -3.37898445      -3.31114710      -3.37215796
O       -4.29596394      -2.73913609      -3.94838849
N       -3.01252195      -4.64137080      -3.49539457
C       -3.65407029      -5.64568340      -4.27697467
C       -4.93396425      -5.42391523      -4.79200201
C       -5.55856021      -6.37950432      -5.57686946
C       -4.90557549      -7.57213776      -5.87111735
C       -3.61050463      -7.86961064      -5.38030186
C       -2.92002473      -9.09274162      -5.68892000
C       -1.67421650      -9.34549210      -5.10905491
C       -1.07937716      -8.41781098      -4.26903410
C       -1.71911351      -7.21322001      -3.99866164
C       -2.98931522      -6.89306260      -4.53571009
N       -3.49573094     -10.02184239      -6.60591123
C       -2.97833811     -11.23470977      -7.02973449
O       -1.92162397     -11.75020602      -6.68424429
C       -3.79576347     -11.96281839      -8.04488348
C       -3.12280991     -12.74699381      -8.99409921
C       -3.83815047     -13.46010428      -9.95870629
C       -5.22962895     -13.39585695      -9.96993270
Br      -6.20143802     -14.36498271     -11.26953949
C       -5.91167662     -12.63165882      -9.02234287
C       -5.19651599     -11.91791401      -8.05430110
H       -0.72123914      -2.60202263       0.41558779
H       -2.17006039      -4.02290003      -0.98100727
H       -2.68317507      -0.75212466      -3.75904957
H       -1.24448774       0.67190969      -2.34242587
H       -2.11912464      -4.88308992      -3.09900488
H       -5.48655931      -4.51316839      -4.58382230
H       -6.55763028      -6.19084661      -5.96218271
H       -5.46045001      -8.27323224      -6.48523634
H       -1.12037921     -10.25778384      -5.30114532
H       -0.10549099      -8.63106867      -3.83503289
H       -1.18468494      -6.53500014      -3.34267375
H       -4.32948124      -9.71271904      -7.07741193
H       -2.03536013     -12.80578919      -8.98131953
H       -3.30119898     -14.06320704     -10.68664473
H       -6.99860582     -12.59776951      -9.02165656
H       -5.74915163     -11.36551459      -7.29971633
C       -0.88176776       0.88176776       0.88176776
C       -1.26417799       0.43330631       2.14687951
C       -2.06739853       1.24017307       2.95939516
C       -2.49031008       2.49381730       2.49745378
C       -2.08869588       2.94029901       1.23063380
C       -1.28857554       2.13217511       0.41997590
C       -3.33526982       3.39711499       3.32990470
O       -3.14838258       4.60355186       3.23155408
N       -4.30333758       2.75845762       4.08749212
C       -5.25693330       3.36188737       4.95790769
C       -5.10506610       4.69431860       5.35049679
C       -6.03895760       5.30260675       6.17336963
C       -7.15110315       4.58912767       6.60859978
C       -7.36922611       3.23441774       6.25677328
C       -8.52173521       2.49085875       6.68909240
C       -8.63112428       1.13730069       6.36033854
C       -7.66173481       0.51111354       5.59337389
C       -6.56514535       1.23202335       5.13382645
C       -6.37715805       2.60156356       5.43936630
N       -9.55633984       3.14586121       7.42128352
C      -10.73396854       2.60198313       7.90683069
O      -11.10854758       1.43935622       7.80817048
C      -11.65014110       3.56075656       8.59256769
C      -13.03188211       3.33693075       8.49509008
C      -13.93443605       4.19465621       9.12786878
C      -13.45494106       5.27403631       9.86644123
Br     -14.67308664       6.43300763      10.72986596
C      -12.08283219       5.49918086       9.98366526
C      -11.17726226       4.63984529       9.35162356
H       -0.93051034      -0.53506238       2.51222604
H       -2.32396034       0.89314455       3.95686279
H       -2.39924788       3.92114587       0.87395555
H       -0.98557125       2.49024336      -0.56081069
H       -4.43084952       1.77922268       3.89114723
H       -4.25077189       5.28934321       5.04343490
H       -5.89893980       6.33823436       6.47348543
H       -7.83387354       5.13022989       7.25481516
H       -9.47453374       0.53169177       6.67308286
H       -7.77074709      -0.54112304       5.34196850
H       -5.85708230       0.67516477       4.53011175
H       -9.46666849       4.14455069       7.50839303
H      -13.40846078       2.48832553       7.92568254
H      -15.00182775       4.00666231       9.04256069
H      -11.71039468       6.33165867      10.57597854
H      -10.11344873       4.80810426       9.49282956
C        0.88176776      -0.88176776       0.88176776
C        1.33876332      -0.39732148       2.10827902
C        2.14224183      -1.20378582       2.92093911
C        2.49047835      -2.49350669       2.49759612
C        2.01432353      -2.97519614       1.27010902
C        1.21407540      -2.16753579       0.45911536
C        3.33239984      -3.39722610       3.33266356
O        3.09016142      -4.59725574       3.29607135
N        4.35947926      -2.77056901       4.01923905
C        5.32427768      -3.37820157       4.87424912
C        5.13345162      -4.68465373       5.33177613
C        6.07626339      -5.29828268       6.14038791
C        7.23600416      -4.61706553       6.49576091
C        7.49572008      -3.28958715       6.07510990
C        8.69689844      -2.58026490       6.42452302
C        8.84906295      -1.24812179       6.03157877
C        7.87406691      -0.61267115       5.27948418
C        6.72845581      -1.30303104       4.89950831
C        6.49613020      -2.64862050       5.27333722
N        9.73421446      -3.24885435       7.14041575
C       10.95433409      -2.73768625       7.55076202
O       11.37328844      -1.59810835       7.38467749
C       11.85845229      -3.70618404       8.23882902
C       13.24276672      -3.54834135       8.07279486
C       14.13523799      -4.41763074       8.70409232
C       13.64354947      -5.44222821       9.50964091
Br      14.84844739      -6.61640508      10.37110775
C       12.26967045      -5.60097502       9.69503284
C       11.37429017      -4.72991317       9.06452776
H        1.06316992       0.59958780       2.44409187
H        2.45741600      -0.82637527       3.89017641
H        2.26669937      -3.98316375       0.94448618
H        0.85281838      -2.55319124      -0.49100570
H        4.51968970      -1.80721122       3.77431852
H        4.24181033      -5.25364745       5.08809223
H        5.90578337      -6.31295500       6.49192123
H        7.92317787      -5.15999160       7.13574913
H        9.73054304      -0.66783826       6.28092707
H        8.01647180       0.42202934       4.97715009
H        6.01859673      -0.74144593       4.30231616
H        9.60609018      -4.23795963       7.27556240
H       13.62943291      -2.74230941       7.45072653
H       15.20481493      -4.28106304       8.56517279
H       11.88884183      -6.39011952      10.33907054
H       10.31160872      -4.84456390       9.25820993
