189
Properties=species:S:1:pos:R:3 pbc="F F F"
C        0.00000000       0.00000000       0.00000000
C        0.88176776       0.88176776      -0.88176776
C        1.09123517       2.21749807      -0.53563058
C        1.90230491       3.02680862      -1.33785323
C        2.49689249       2.49476595      -2.48992271
C        2.29107850       1.14799395      -2.82055623
C        1.47904064       0.34220239      -2.01948352
C        3.38062947       3.31138278      -3.37027726
O        4.32840894       2.74970837      -3.90537121
N        2.98189018       4.62708496      -3.54031218
C        3.61751966       5.62733717      -4.33187153
C        4.91676613       5.42738620      -4.80572916
C        5.53686520       6.37839139      -5.59967740
C        4.86029467       7.54401638      -5.94451955
C        3.54450822       7.81853833      -5.49737059
C        2.83004535       9.01320690      -5.85843411
C        1.56221853       9.24681807      -5.31972690
C        0.96956565       8.32601880      -4.47063779
C        1.63388490       7.14743123      -4.14967903
C        2.92671972       6.84830001      -4.64306818
N        3.40568084       9.93281104      -6.78499269
C        2.86765502      11.11891950      -7.25620785
O        1.78818903      11.61399633      -6.95388893
C        3.69299272      11.84174752      -8.26872511
C        3.02572359      12.58095186      -9.25722749
C        3.74805392      13.28732212     -10.22158501
C        5.14053515      13.26150170     -10.19338175
C        5.81639642      12.54246846      -9.20681343
C        5.09416756      11.83556223      -8.23900131
H        0.63876671       2.63135508       0.36244780
H        2.08689189       4.05366606      -1.03340973
H        2.76531263       0.72447861      -3.70455806
H        1.32684234      -0.70016352      -2.28832510
H        2.07160797       4.85450744      -3.17510403
H        5.48779101       4.53831706      -4.55744193
H        6.55099758       6.20722761      -5.95243441
H        5.41286136       8.24339845      -6.56265878
H        0.98946330      10.13783159      -5.55201348
H       -0.02142063       8.52378100      -4.06923218
H        1.09996617       6.47260736      -3.48978530
H        4.26027203       9.63434539      -7.22499480
H        1.93714656      12.60981824      -9.27550405
H        3.21543061      13.85535568     -10.98026446
H        6.90340528      12.53883914      -9.17578748
H        5.64035109      11.31935056      -7.45468089
C        5.88790749      13.99307906     -11.18324495
C        6.51383183      14.60577509     -12.01225538
Br       7.52589854      15.59645276     -13.35269513
C       -0.88176776      -0.88176776      -0.88176776
C       -1.24040288      -2.15815989      -0.44580104
C       -2.05205129      -2.96667684      -1.24823863
C       -2.49728080      -2.49414643      -2.49015392
C       -2.14255901      -1.20507781      -2.91199187
C       -1.33017487      -0.40023861      -2.11031307
C       -3.37517706      -3.31097024      -3.37614220
O       -4.21972945      -2.72324103      -4.04051804
N       -3.08532478      -4.66539254      -3.39857000
C       -3.74119083      -5.67706943      -4.15846810
C       -4.97262649      -5.41333431      -4.76392069
C       -5.60838907      -6.37765791      -5.52888701
C       -5.01454335      -7.62231556      -5.71197169
C       -3.77126633      -7.96386737      -5.12528343
C       -3.14111368      -9.24199121      -5.31858147
C       -1.94934519      -9.53058676      -4.64883156
C       -1.34818056      -8.58891353      -3.82912815
C       -1.92669113      -7.33459530      -3.66970873
C       -3.14108444      -6.97475927      -4.30224421
N       -3.71881017     -10.19096773      -6.21370666
C       -3.25375545     -11.45590526      -6.53312164
O       -2.25300448     -12.00978646      -6.09328335
C       -4.05410278     -12.19659689      -7.55276567
C       -3.37680843     -13.07605269      -8.41104182
C       -4.07746181     -13.80462548      -9.37487376
C       -5.45924812     -13.66009124      -9.47607924
C       -6.14674723     -12.80011019      -8.61882090
C       -5.44643426     -12.07068192      -7.65161493
H       -0.90419842      -2.52471003       0.52123446
H       -2.35433547      -3.94245095      -0.87718126
H       -2.50065691      -0.82584085      -3.86785154
H       -1.06159026       0.59687880      -2.45029246
H       -2.23329448      -4.93380292      -2.93412204
H       -5.47890024      -4.46073505      -4.64391472
H       -6.56964457      -6.15526171      -5.98575332
H       -5.57502541      -8.32655207      -6.31734111
H       -1.44286859     -10.48380031      -4.75263947
H       -0.41638442      -8.83133187      -3.32387626
H       -1.39044271      -6.64936113      -3.02255498
H       -4.50284711      -9.86353613      -6.75322897
H       -2.29769926     -13.19731327      -8.32745632
H       -3.53736457     -14.48200931     -10.03167687
H       -7.22766781     -12.70286073      -8.68750336
H       -6.00685749     -11.44124979      -6.96627526
C       -6.18491985     -14.41391215     -10.46539950
C       -6.79266991     -15.04523716     -11.29395523
Br      -7.77535037     -16.06603631     -12.63365975
C       -0.88176776       0.88176776       0.88176776
C       -1.20791970       0.46367445       2.17276966
C       -2.01096168       1.27084761       2.98515747
C       -2.49019638       2.49405202       2.49733275
C       -2.14485029       2.91073112       1.20404727
C       -1.34480318       2.10226405       0.39365932
C       -3.33750799       3.39686908       3.32791243
O       -3.19427958       4.60475740       3.18445153
N       -4.25873173       2.75291933       4.13763625
C       -5.20332373       3.35395005       5.01945459
C       -5.08342316       4.70295638       5.36350195
C       -6.01003039       5.30788952       6.19701407
C       -7.08309279       4.57378146       6.69195635
C       -7.26711681       3.20174088       6.39155944
C       -8.37958894       2.43618416       6.88591326
C       -8.45428953       1.06957745       6.60489653
C       -7.48981881       0.44977810       5.82662533
C       -6.43332942       1.18999441       5.30767133
C       -6.28139906       2.57433027       5.56235859
N       -9.41128989       3.08149978       7.63069489
C      -10.55380162       2.51637394       8.17260680
O      -10.89234676       1.33960680       8.12412072
C      -11.47884129       3.46740776       8.85721630
C      -12.85476659       3.19592868       8.81320767
C      -13.76453957       4.04469550       9.44772597
C      -13.29773849       5.16306019      10.13461992
C      -11.93084100       5.43620467      10.19863264
C      -11.01797772       4.58595152       9.56480186
H       -0.83047782      -0.48067074       2.55786691
H       -2.22343455       0.94920765       4.00132548
H       -2.49933805       3.86857722       0.82643402
H       -1.08576765       2.43698919      -0.60775292
H       -4.35975545       1.76406680       3.97739718
H       -4.25983801       5.31468656       5.00902543
H       -5.89504455       6.35694249       6.45867256
H       -7.76231427       5.11381619       7.34278814
H       -9.26646470       0.44781577       6.96502789
H       -7.57170437      -0.61323788       5.61312606
H       -5.72694345       0.63645646       4.69895892
H       -9.35224456       4.08491625       7.68245140
H      -13.22100213       2.31706258       8.28440414
H      -14.82725817       3.81957175       9.40422084
H      -11.56746367       6.29959174      10.75097649
H       -9.95636861       4.79311233       9.66490160
C      -14.23301080       6.03705068      10.79417002
C      -15.01630135       6.76901772      11.34654323
Br     -16.28281593       7.95254651      12.23968399
C        0.88176776      -0.88176776       0.88176776
C        1.31010908      -0.41056953       2.12368520
C        2.11348563      -1.21718795       2.93629318
C        2.49041134      -2.49362594       2.49754387
C        2.04288579      -2.96236957       1.25437333
C        1.24269090      -2.15452998       0.44350567
C        3.33348931      -3.39721239       3.33158780
O        3.11217455      -4.60030807       3.27100590
N        4.33831461      -2.76527298       4.04569973
C        5.29890816      -3.37115306       4.90666714
C        5.12258798      -4.68812585       5.33916766
C        6.06207213      -5.29958257       6.15327928
C        7.20409678      -4.60530855       6.53942527
C        7.44832085      -3.26679455       6.14530172
C        8.63139615      -2.54363516       6.52665505
C        8.76756047      -1.20270989       6.15849315
C        7.79459505      -0.57092527       5.40070192
C        6.66725862      -1.27368988       4.99004666
C        6.45149973      -2.62906532       5.33752286
N        9.66782398      -3.20690436       7.24875622
C       10.87216769      -2.68255747       7.68805720
O       11.27453201      -1.53354444       7.54799783
C       11.78095722      -3.64739170       8.37511643
C       13.16497567      -3.46382120       8.23510607
C       14.06138953      -4.32871018       8.86686133
C       13.57376044      -5.37477185       9.64688631
C       12.19986852      -5.55939969       9.80641010
C       11.30050341      -4.69280039       9.17542731
H        1.01219931       0.57582121       2.47129589
H        2.40612039      -0.85100767       3.91683961
H        2.31760202      -3.96037273       0.91637454
H        0.90380811      -2.53004008      -0.51884428
H        4.48628907      -1.79539391       3.81953645
H        4.24484083      -5.26764376       5.07106542
H        5.90292775      -6.32273113       6.48500072
H        7.88961950      -5.14747884       7.18182026
H        9.63486477      -0.61216951       6.43227408
H        7.92451784       0.47094983       5.11802454
H        5.95803191      -0.71396432       4.39036259
H        9.55418265      -4.20013903       7.36529053
H       13.54825525      -2.64110246       7.63311114
H       15.13066770      -4.17208877       8.74829428
H       11.82177539      -6.36550955      10.43074696
H       10.23684028      -4.82832057       9.34922169
C       14.49566088      -6.26491249      10.30365813
C       15.26775250      -7.01040527      10.85370453
Br      16.51615934      -8.21580406      11.74308303
