178
Properties=species:S:1:pos:R:3 pbc="F F F"
C        1.79150679       1.79150679      -1.79150679
C        1.77217492       3.17380718      -1.62857879
C        2.57227926       3.97925425      -2.44373926
C        3.39983896       3.41406236      -3.42944806
C        3.40132905       2.01744188      -3.57483240
C        2.60315206       1.20936724      -2.76000872
C        4.20302721       4.34826893      -4.31577559
N        5.08991389       3.68122759      -5.26528967
C        6.45027338       3.39709536      -4.83663683
C        4.57054291       3.33017097      -6.50667681
O        3.43133340       3.65744272      -6.85188183
C        5.45600509       2.50404590      -7.44758543
O        4.65757057       1.83015059      -8.42550833
C        3.96056627       0.77398446      -7.93195118
O        4.05445769       0.30817258      -6.80620048
C        2.94168039       0.34442341      -8.91224648
C        1.65637297       0.09384868      -8.39962424
C        0.63301217      -0.30471557      -9.25618891
C        0.87206212      -0.45846269     -10.61968998
C        2.15227536      -0.22647903     -11.12832587
C        3.19453336       0.16530990     -10.27874177
Cl       4.76090355       0.33579310     -10.98684979
H        1.13229765       3.63484057      -0.88124174
H        2.53303420       5.05953748      -2.31715882
H        4.00590900       1.53207762      -4.33763453
H        2.61636608       0.13201370      -2.90299730
H        4.80852157       5.01738264      -3.69235558
H        3.49692291       4.97863767      -4.86979684
H        6.58319148       3.63530292      -3.77743429
H        7.13370597       4.00746199      -5.43441559
H        6.68503674       2.34118151      -4.98560758
H        6.06845507       1.76889387      -6.91387084
H        6.12679054       3.18931466      -7.97419561
H        1.46414361       0.22234597      -7.33639155
H        0.07487661      -0.76590804     -11.29232742
H        2.33406752      -0.36360214     -12.19245752
C       -0.68220255      -0.56271013      -8.72964446
C       -1.78369487      -0.77878058      -8.28866348
Br      -3.56471480      -1.12814822      -7.57563453
C       -1.79150679      -1.79150679      -1.79150679
C       -3.16473588      -1.84077705      -1.56904796
C       -3.96812587      -2.65643818      -2.37070872
C       -3.40994353      -3.43098779      -3.40241806
C       -2.02228615      -3.36469403      -3.60662316
C       -1.21656473      -2.54872073      -2.80724257
C       -4.33078590      -4.33524345      -4.20104239
N       -3.68631897      -5.05141006      -5.29870212
C       -3.66655734      -4.41245454      -6.60499368
C       -3.10371047      -6.28316108      -5.02051916
O       -3.20960917      -6.81809552      -3.91295325
C       -2.30420457      -6.96731448      -6.13611737
O       -1.39760002      -7.92875445      -5.58687502
C       -0.32215722      -7.37753088      -4.96681381
O       -0.02548883      -6.19226673      -4.95107518
C        0.37817535      -8.40636729      -4.17015834
C        0.74934198      -8.03304171      -2.86614616
C        1.40392058      -8.94580136      -2.04260472
C        1.69565953     -10.22842090      -2.50052803
C        1.34296098     -10.59572221      -3.80136096
C        0.69310602      -9.68634379      -4.64534725
Cl       0.38380527     -10.20289974      -6.26445196
H       -3.61795366      -1.26000568      -0.77042062
H       -5.03761727      -2.69880685      -2.17330638
H       -1.53794114      -3.96156591      -4.37611411
H       -0.14393009      -2.52624783      -2.98119916
H       -5.15793353      -3.74559893      -4.61472734
H       -4.77142152      -5.06400477      -3.50993113
H       -4.05720662      -3.39252505      -6.54619701
H       -4.28946948      -5.00101120      -7.28510287
H       -2.64725640      -4.37033114      -6.99423830
H       -1.74423399      -6.25494660      -6.75203920
H       -3.00787509      -7.49893569      -6.78349002
H        0.51428101      -7.03491946      -2.50224267
H        2.20329466     -10.94517998      -1.85941067
H        1.58815294     -11.59479008      -4.15628575
C        1.78502316      -8.56159680      -0.70815814
C        2.10419658      -8.23982547       0.40944087
Br       2.62027299      -7.71954845       2.21650394
C       -1.79150679       1.79150679       1.79150679
C       -3.10306469       2.06076459       1.41073161
C       -3.90469922       2.87642196       2.21415159
C       -3.40629066       3.43154314       3.40551558
C       -2.08008531       3.14577900       3.76773902
C       -1.27652021       2.32920562       2.96680219
C       -4.31195942       4.35114964       4.20396268
N       -3.74527439       4.82863887       5.46251790
C       -3.98860448       4.03724806       6.65815303
C       -2.98201430       5.99082680       5.43454960
O       -2.86411022       6.66768490       4.40886282
C       -2.26950078       6.41281761       6.72531804
O       -1.18308774       7.29722396       6.43291779
C       -0.10720965       6.68063342       5.87865885
O        0.04040471       5.47645747       5.73277799
C        0.81973311       7.69078582       5.32729756
C        1.32204601       7.43242890       4.03946300
C        2.19352952       8.33831336       3.43970167
C        2.57362931       9.50075517       4.10616355
C        2.08916384       9.75098432       5.39230173
C        1.21985697       8.84523702       6.01320497
Cl       0.75157560       9.19675774       7.63836429
H       -3.50732378       1.65249462       0.48856157
H       -4.92226602       3.09302476       1.89443972
H       -1.63916079       3.56906978       4.66739059
H       -0.25011160       2.13459289       3.26667259
H       -5.25541632       3.83747771       4.42536576
H       -4.55766474       5.21425629       3.57343640
H       -4.48972846       3.09761466       6.40858556
H       -4.62380684       4.61936480       7.33241191
H       -3.04733643       3.80432086       7.16016854
H       -1.89395707       5.55826740       7.29899532
H       -2.98643768       6.95441476       7.34944836
H        1.01942926       6.52988980       3.51242058
H        3.25091897      10.21232692       3.63988803
H        2.40311394      10.65413136       5.91190547
C        2.70854987       8.07161961       2.12166203
C        3.13987940       7.84826360       1.01780383
Br       3.83730278       7.48711582      -0.76704151
C        1.79150679      -1.79150679       1.79150679
C        1.70203284      -3.17729177       1.69523628
C        2.50260844      -3.98204695       2.51061738
C        3.40059778      -3.41269373       3.43005788
C        3.47208490      -2.01256763       3.50895080
C        2.67356721      -1.20526653       2.69369428
C        4.20180045      -4.34286205       4.32240923
N        5.16187914      -3.67632189       5.19823013
C        6.51187171      -3.47656700       4.69556686
C        4.71825116      -3.24532966       6.44380988
O        3.58303460      -3.50237154       6.85525181
C        5.68369058      -2.42036831       7.30357754
O        4.96371583      -1.66592626       8.28358740
C        4.29257396      -0.60133567       7.77259228
O        4.35402563      -0.19184360       6.62296152
C        3.34169049      -0.08016122       8.77649857
C        2.04619682       0.20755223       8.31120130
C        1.08359009       0.69241634       9.19331177
C        1.39362049       0.89613918      10.53580810
C        2.68468238       0.62703792      10.99647773
C        3.66678245       0.14835553      10.12015811
Cl       5.25560970      -0.06390819      10.76402854
H        1.00731474      -3.64082136       1.00024386
H        2.40863380      -5.06387697       2.43721973
H        4.13341303      -1.52238954       4.21981859
H        2.74221094      -0.12438614       2.78478001
H        4.74624602      -5.06737826       3.70463551
H        3.49494737      -4.91341605       4.93699401
H        6.58359952      -3.76842489       3.64390428
H        7.19455177      -4.09096128       5.29007050
H        6.80090404      -2.42729755       4.78362424
H        6.30278691      -1.73990460       6.70852828
H        6.34699659      -3.11212179       7.83118242
H        1.79824169       0.04037891       7.26501834
H        0.64387952       1.27106088      11.22847735
H        2.92265508       0.80335327      12.04362108
C       -0.24207047       0.98832026       8.71512251
C       -1.35231118       1.23613979       8.31463900
Br      -3.14747652       1.63684301       7.66709105
C       -0.00445707       0.01189536      -1.78238275
H       -0.66409135       0.67374010      -2.43557963
H        0.65740317      -0.63156657      -2.45157240
C       -0.90989263      -0.90692880      -0.91072765
C        0.90977584       0.90977584      -0.90977584
C       -0.00465871       1.77757030       0.00794375
H       -0.66225468       2.44313916      -0.64384735
H        0.64322798       2.43503045       0.67728295
C       -1.78241447       0.00034974      -0.00472694
H       -2.45427497      -0.65498947       0.64260836
H       -2.43311707       0.67328779      -0.65473579
C       -0.91132561       0.90220522       0.91563759
C       -0.01476271      -0.02253852       1.78660255
H       -0.67934791      -0.69751639       2.42135241
H        0.63392994       0.61504881       2.47327442
C        0.01484550      -1.77751727      -0.01636693
H        0.67870853      -2.42144646      -0.68295456
H       -0.62264859      -2.45592969       0.64226336
C        1.78714474       0.01002794       0.00389507
H        2.44202412       0.67113390       0.66197326
H        2.45385902      -0.65136977      -0.64189061
C        0.91606151      -0.90478549       0.90901405
