170
Properties=species:S:1:pos:R:3 pbc="F F F"
C        1.79150679       1.79150679      -1.79150679
C        1.77217492       3.17380718      -1.62857879
C        2.57227926       3.97925425      -2.44373926
C        3.39983896       3.41406236      -3.42944806
C        3.40132905       2.01744188      -3.57483240
C        2.60315206       1.20936724      -2.76000872
C        4.20302721       4.34826893      -4.31577559
N        5.08991389       3.68122759      -5.26528967
C        6.45027338       3.39709536      -4.83663683
C        4.57054291       3.33017097      -6.50667681
O        3.43133340       3.65744272      -6.85188183
C        5.45600509       2.50404590      -7.44758543
O        4.65757057       1.83015059      -8.42550833
C        3.96056627       0.77398446      -7.93195118
O        4.05445769       0.30817258      -6.80620048
C        2.94168039       0.34442341      -8.91224648
C        1.65637297       0.09384868      -8.39962424
C        0.63301217      -0.30471557      -9.25618891
Br      -1.09308735      -0.64330993      -8.56514727
C        0.87206212      -0.45846269     -10.61968998
C        2.15227536      -0.22647903     -11.12832587
C        3.19453336       0.16530990     -10.27874177
Cl       4.76090355       0.33579310     -10.98684979
H        1.13229765       3.63484057      -0.88124174
H        2.53303420       5.05953748      -2.31715882
H        4.00590900       1.53207762      -4.33763453
H        2.61636608       0.13201370      -2.90299730
H        4.80852157       5.01738264      -3.69235558
H        3.49692291       4.97863767      -4.86979684
H        6.58319148       3.63530292      -3.77743429
H        7.13370597       4.00746199      -5.43441559
H        6.68503674       2.34118151      -4.98560758
H        6.06845507       1.76889387      -6.91387084
H        6.12679054       3.18931466      -7.97419561
H        1.46414361       0.22234597      -7.33639155
H        0.07487661      -0.76590804     -11.29232742
H        2.33406752      -0.36360214     -12.19245752
C       -1.79150679      -1.79150679      -1.79150679
C       -2.02775492      -1.43155604      -3.11524993
C       -2.84344217      -2.23470387      -3.91712672
C       -3.43151819      -3.40502702      -3.40680417
C       -3.17868736      -3.74646351      -2.06845246
C       -2.36217083      -2.94577750      -1.26457969
C       -4.34900271      -4.20324530      -4.31482374
N       -4.86212460      -5.44088899      -3.73341757
C       -4.08992870      -6.65619079      -3.93788607
C       -6.03809174      -5.37536565      -2.99393331
O       -6.69672557      -4.33464045      -2.90929192
C       -6.49919538      -6.64340584      -2.26503521
O       -7.39852279      -6.31254977      -1.20215693
C       -6.79205389      -5.74920026      -0.12524777
O       -5.58831608      -5.62377227       0.04325761
C       -7.80888005      -5.16019598       0.77072574
C       -7.53492297      -3.86793908       1.25301616
C       -8.44549198      -3.23366655       2.09467301
Br      -8.07455142      -1.49795339       2.74375482
C       -9.62800412      -3.86986691       2.46458162
C       -9.89414854      -5.16023309       2.00025943
C       -8.98417615      -5.81559383       1.16118495
Cl      -9.35857930      -7.44257119       0.71760405
H       -1.59361069      -0.52562251      -3.52914676
H       -3.03395212      -1.93100878      -4.94476960
H       -3.62811190      -4.62887259      -1.61863666
H       -2.19342202      -3.22903847      -0.22891659
H       -3.82163386      -4.45313237      -5.24349356
H       -5.19457573      -3.56110199      -4.58967970
H       -3.13602680      -6.43480132      -4.42510056
H       -4.67283675      -7.33146240      -4.57128440
H       -3.88522240      -7.14394205      -2.98266138
H       -5.66356676      -7.22599311      -1.86165992
H       -7.03902748      -7.27096597      -2.98030736
H       -6.61646640      -3.36454394       0.95812922
H      -10.34321051      -3.37662433       3.11853886
H      -10.81328538      -5.65595689       2.30631937
C       -1.79150679       1.79150679       1.79150679
C       -1.88964480       3.15515356       1.52976254
C       -2.68908811       3.96172364       2.34446101
C       -3.39882342       3.41625054       3.42827542
C       -3.28309195       2.03828725       3.67222414
C       -2.48534043       1.22899277       2.85819482
C       -4.20613043       4.35610327       4.30483804
N       -4.96964588       3.70235186       5.36443342
C       -6.33128283       3.29030027       5.06242246
C       -4.33803454       3.48512427       6.58423188
O       -3.20556960       3.91797814       6.81711021
C       -5.08857025       2.67260168       7.64646450
O       -4.17343679       2.13396858       8.60582413
C       -3.43448896       1.09533604       8.13667691
O       -3.57221578       0.53924647       7.05736850
C       -2.31863972       0.81554820       9.06416236
C       -1.05761174       0.61844838       8.47378578
C        0.05152336       0.36033683       9.27567204
Br       1.74499053       0.09336753       8.48037299
C       -0.07756147       0.29479091      10.66093702
C       -1.33238364       0.47345826      11.24828030
C       -2.45929805       0.72402289      10.45526408
Cl      -3.97983114       0.83645689      11.26725840
H       -1.34165554       3.60194319       0.70478123
H       -2.74172580       5.02920143       2.13880328
H       -3.79301592       1.57099158       4.51161365
H       -2.40587228       0.16753416       3.07797065
H       -4.90382147       4.93082127       3.68361705
H       -3.51275948       5.07560038       4.75699756
H       -6.55697199       3.43670007       4.00225663
H       -7.01521040       3.89451142       5.66586173
H       -6.47336822       2.23487840       5.30357921
H       -5.67933699       1.85710348       7.21477931
H       -5.77070933       3.34675762       8.17283385
H       -0.95182174       0.67853470       7.39252468
H        0.78659178       0.09715196      11.29073581
H       -1.42706950       0.40560375      12.33024964
C        1.79150679      -1.79150679       1.79150679
C        1.81842954      -1.58786123       3.16827012
C        2.63406374      -2.38935089       3.97185814
C        3.43087699      -3.40212554       3.41034685
C        3.38687705      -3.58755438       2.01917190
C        2.57099563      -2.78831577       1.21321663
C        4.33340420      -4.20100580       4.33266174
N        5.07398599      -5.27931088       3.68313429
C        4.45394221      -6.59399077       3.63607258
C        6.30969123      -4.97571882       3.12198065
O        6.82734688      -3.86239903       3.25091204
C        7.02068641      -6.07020931       2.31674071
O        7.98682005      -5.49479733       1.43161211
C        7.44194509      -4.86732197       0.35723485
O        6.26083744      -4.86394249       0.04405082
C        8.46907430      -4.04652697      -0.31725099
C        8.08253145      -2.74272966      -0.67541522
C        8.99258670      -1.89732404      -1.30542523
Br       8.47062580      -0.14628906      -1.78816487
C       10.28551664      -2.33310321      -1.58533044
C       10.66624939      -3.63354439      -1.24567158
C        9.75993039      -4.49927663      -0.62062200
Cl      10.29500420      -6.11522639      -0.32668416
H        1.22012522      -0.80392785       3.62432689
H        2.65868488      -2.20654956       5.04449607
H        4.00130073      -4.34169115       1.53262927
H        2.56597803      -2.94735349       0.13804556
H        3.73818176      -4.63456693       5.14551110
H        5.04607250      -3.50609316       4.79319176
H        3.42792371      -6.55499061       4.01301436
H        5.04331611      -7.27456862       4.25769881
H        4.43158333      -6.96930413       2.61093838
H        6.32501019      -6.68802748       1.73818212
H        7.55154398      -6.71999685       3.01875998
H        7.07616651      -2.39617384      -0.44945923
H       11.00014195      -1.67490599      -2.07375195
H       11.67357408      -3.97096652      -1.48161771
C       -0.00445707       0.01189536      -1.78238275
H       -0.66409135       0.67374010      -2.43557963
H        0.65740317      -0.63156657      -2.45157240
C       -0.90989263      -0.90692880      -0.91072765
C        0.90977584       0.90977584      -0.90977584
C       -0.00465871       1.77757030       0.00794375
H       -0.66225468       2.44313916      -0.64384735
H        0.64322798       2.43503045       0.67728295
C       -1.78241447       0.00034974      -0.00472694
H       -2.45427497      -0.65498947       0.64260836
H       -2.43311707       0.67328779      -0.65473579
C       -0.91132561       0.90220522       0.91563759
C       -0.01476271      -0.02253852       1.78660255
H       -0.67934791      -0.69751639       2.42135241
H        0.63392994       0.61504881       2.47327442
C        0.01484550      -1.77751727      -0.01636693
H        0.67870853      -2.42144646      -0.68295456
H       -0.62264859      -2.45592969       0.64226336
C        1.78714474       0.01002794       0.00389507
H        2.44202412       0.67113390       0.66197326
H        2.45385902      -0.65136977      -0.64189061
C        0.91606151      -0.90478549       0.90901405
