157
Properties=species:S:1:pos:R:3 pbc="F F F"
C        0.00000000       0.00000000       0.00000000
C        0.88160276       0.88160276      -0.88160276
C        0.86227089       2.26390316      -0.71867477
C        1.66237523       3.06935023      -1.53383523
C        2.48993494       2.50415833      -2.51954403
C        2.49142503       1.10753785      -2.66492838
C        1.69324804       0.29946322      -1.85010470
C        3.29312319       3.43836491      -3.40587157
N        4.18000987       2.77132357      -4.35538565
C        5.54036936       2.48719133      -3.92673280
C        3.66063889       2.42026695      -5.59677279
O        2.52142937       2.74753870      -5.94197780
C        4.54610107       1.59414188      -6.53768141
O        3.74766654       0.92024657      -7.51560431
C        3.05066225      -0.13591956      -7.02204715
O        3.14455366      -0.60173144      -5.89629646
C        2.03177636      -0.56548061      -8.00234245
C        0.74646894      -0.81605534      -7.48972022
C       -0.27689186      -1.21461959      -8.34628488
C       -0.03784191      -1.36836672      -9.70978596
C        1.24237133      -1.13638305     -10.21842184
C        2.28462933      -0.74459413      -9.36883775
Cl       3.85099952      -0.57411093     -10.07694577
H        0.22239363       2.72493655       0.02866228
H        1.62313018       4.14963346      -1.40725479
H        3.09600498       0.62217360      -3.42773050
H        1.70646206      -0.77789033      -1.99309328
H        3.89861755       4.10747861      -2.78245155
H        2.58701888       4.06873365      -3.95989281
H        5.67328745       2.72539890      -2.86753026
H        6.22380195       3.09755797      -4.52451156
H        5.77513272       1.43127749      -4.07570356
H        5.15855105       0.85898985      -6.00396682
H        5.21688651       2.27941063      -7.06429159
H        0.55423959      -0.68755806      -6.42648752
H       -0.83502741      -1.67581207     -10.38242340
H        1.42416349      -1.27350616     -11.28255350
C       -1.59210657      -1.47261416      -7.81974043
C       -2.69359889      -1.68868460      -7.37875945
Br      -4.47461882      -2.03805224      -6.66573051
C       -0.88160276      -0.88160276      -0.88160276
C       -1.09243842      -0.53836308      -2.21404731
C       -1.90814189      -1.34130330      -3.01611550
C       -2.52158142      -2.49475239      -2.49730349
C       -2.29410399      -2.81950835      -1.15027893
C       -1.47763892      -2.01901142      -0.34616561
C       -3.43739028      -3.29285371      -3.40711568
N       -3.97798600      -4.51364978      -2.81508330
C       -3.22141984      -5.74338217      -2.98949149
C       -5.16378669      -4.41921697      -2.09467497
O       -5.80767865      -3.36755235      -2.03571487
C       -5.65505353      -5.66893556      -1.35393527
O       -6.56508870      -5.30845485      -0.30997387
C       -5.96633935      -4.73792544       0.76747495
O       -4.76349501      -4.62802876       0.95240509
C       -6.98740630      -4.12013549       1.63890359
C       -6.70105677      -2.82493640       2.10585935
C       -7.61438553      -2.16431157       2.92392367
C       -8.81187660      -2.77697636       3.28527563
C       -9.09065620      -4.07012859       2.83637466
C       -8.17828408      -4.75178849       2.02119962
Cl      -8.57073933      -6.37953354       1.59643850
H       -0.63837261       0.35453741      -2.63483268
H       -2.07855237      -1.05048013      -4.05098593
H       -2.76362730      -3.68811293      -0.69416885
H       -1.32879357      -2.28895622       0.69608478
H       -2.90000926      -3.56475453      -4.32378392
H       -4.26885662      -2.64235251      -3.70443622
H       -2.25704784      -5.54378926      -3.46537951
H       -3.80497763      -6.41940216      -3.62149168
H       -3.03853431      -6.21953623      -2.02404322
H       -4.83455098      -6.25778628      -0.92917045
H       -6.19358895      -6.29914951      -2.06785028
H       -5.77071118      -2.33993897       1.81748110
H       -9.52921912      -2.26314279       3.92077799
H      -10.02173271      -4.54727594       3.13579783
C       -7.31907691      -0.83877959       3.40283679
C       -7.07175594       0.27135345       3.80392653
Br      -6.67185884       2.06634467       4.45245472
C       -0.88160276       0.88160276       0.88160276
C       -1.89389898       1.64454369       0.30640615
C       -2.69275473       2.45858357       1.11422239
C       -2.49008847       2.51968182       2.50386701
C       -1.46232372       1.74132720       3.06024035
C       -0.66272588       0.92522833       2.25486174
C       -3.35764652       3.46378018       3.31593297
N       -3.13287780       3.41560216       4.75823912
C       -3.93281937       2.48398363       5.53749049
C       -2.14702656       4.23833108       5.29232098
O       -1.54440906       5.06511845       4.60141836
C       -1.81254058       4.08435667       6.78102712
O       -0.51171599       4.61139291       7.06040853
C        0.50497271       3.83092435       6.61083819
O        0.39902757       2.71599167       6.12215457
C        1.77395396       4.58676326       6.65582891
C        2.58943711       4.49580043       5.51377050
C        3.79839471       5.18579508       5.46737307
C        4.20844881       5.96673614       6.54529001
C        3.40790253       6.04487897       7.68743368
C        2.19411313       5.34924144       7.75374464
Cl       1.32268354       5.43365190       9.24286600
H       -2.06254398       1.62284183      -0.76671792
H       -3.46841951       3.06337105       0.64822787
H       -1.24922487       1.77027630       4.12640791
H        0.13273083       0.34244848       2.71194736
H       -4.41584716       3.24665646       3.12604409
H       -3.17134049       4.48431167       2.95999319
H       -4.53547937       1.84636657       4.88437067
H       -4.59339977       3.06125293       6.19121878
H       -3.29001094       1.84534840       6.14675442
H       -1.85954043       3.04316006       7.11880722
H       -2.54136489       4.66305576       7.35616808
H        2.26731012       3.89419394       4.66628523
H        5.14987168       6.50992297       6.51153262
H        3.74295915       6.64514750       8.53102247
C        4.63330655       5.09031441       4.29801185
C        5.33254522       5.01034935       3.31867183
Br       6.46315500       4.88105261       1.73516185
C        0.88160276      -0.88160276       0.88160276
C        1.66960073      -0.30281729       1.87243080
C        2.48349571      -1.11087416       2.67119082
C        2.51945743      -2.50433693       2.48984294
C        1.71609857      -3.06430085       1.48349185
C        0.90009487      -2.25865974       0.68406134
C        3.46441020      -3.31764123       3.35530824
N        3.38994050      -4.76235223       3.15442636
C        2.45908393      -5.51391012       3.98129945
C        4.18828326      -5.32498194       2.16441342
O        5.01610054      -4.65696687       1.53787847
C        4.00555819      -6.81611631       1.85624986
O        4.50725446      -7.12433880       0.55192416
C        3.71779742      -6.67840427      -0.45941185
O        2.61253442      -6.17034081      -0.34375655
C        4.45243845      -6.75545377      -1.73925401
C        4.36643486      -5.62506733      -2.57136837
C        5.03764724      -5.60875340      -3.79162720
C        5.79486096      -6.70534711      -4.19663073
C        5.86780751      -7.83584888      -3.37924626
C        5.19071742      -7.87190499      -2.15374946
Cl       5.26560093      -9.34828128      -1.26004785
H        1.66749781       0.77303882       2.02420890
H        3.10787550      -0.64245901       3.42968392
H        1.72484533      -4.13401804       1.28704572
H        0.29754084      -2.71883189      -0.09470771
H        3.26725826      -3.10766619       4.41362326
H        4.48730846      -2.98104922       3.14728767
H        1.84155090      -4.84126670       4.58339901
H        3.03648209      -6.16630745       4.64308193
H        1.80073444      -6.12292538       3.35845394
H        2.96005754      -7.13641595       1.92503422
H        4.58671477      -7.38889452       2.58497944
H        3.78347599      -4.76310032      -2.25340726
H        6.32338308      -6.69510946      -5.14690861
H        6.44928327      -8.69410258      -3.71017502
C        4.94724602      -4.45130466      -4.64353097
C        4.87153500      -3.48194134      -5.35700038
Br       4.74911668      -1.91456284      -6.51062007
