194
Properties=species:S:1:pos:R:3 pbc="F F F"
C        1.79147126       1.79147126      -1.79147126
C        2.74154986       1.20822770      -2.62649621
C        3.55215393       2.01537815      -3.43045089
C        3.40280904       3.41064707      -3.42122285
C        2.45144598       3.98033450      -2.55739301
C        1.64622272       3.17505068      -1.74881434
C        4.27980487       4.32388550      -4.25446707
N        4.66475272       3.78481891      -5.54881734
C        3.68462219       3.57107814      -6.51832137
N        3.89195143       3.19180761      -7.74464826
C        5.20439504       3.02739878      -8.02903442
N        5.74396633       2.66455804      -9.23305164
C        5.03674379       2.40357676     -10.46995671
C        5.29213398       0.99457346     -10.99537042
N        4.59813121       0.73728411     -12.24537697
C        3.26557740       0.38412990     -12.29218740
O        2.59191964       0.22885412     -11.27889089
C        2.74256217       0.22989776     -13.63369043
C        1.49062709      -0.14953863     -14.08095851
C        1.53512904      -0.11597110     -15.49609298
C        2.80889131       0.28287788     -15.82937488
Br       3.44220238       0.51145529     -17.56862432
O        3.55138440       0.49327614     -14.70991842
N        7.10228955       2.62565656      -9.21141246
C        7.40965384       2.96285881      -7.95141331
C        6.26793686       3.21961819      -7.18510374
C        6.02794838       3.63745374      -5.83293437
O        6.93895754       3.85895550      -5.04317652
H        2.86349965       0.12827699      -2.65595532
H        4.29969433       1.53808187      -4.06137174
H        2.33184835       5.06109360      -2.50281650
H        0.91575264       3.63603914      -1.08889078
H        5.15874876       4.59161456      -3.65806504
H        3.72861643       5.25012776      -4.46227067
H        2.65463255       3.74535782      -6.16659791
H        5.37274656       3.15547187     -11.19389232
H        3.96713185       2.56850907     -10.30312085
H        4.97433384       0.24967557     -10.25630239
H        6.35816050       0.83391143     -11.18998541
H        5.07673355       0.88280990     -13.12840095
H        0.65353946      -0.41513563     -13.44857951
H        0.73495328      -0.35191539     -16.18379933
H        8.44978263       3.01795809      -7.65566762
C       -1.79147126      -1.79147126      -1.79147126
C       -2.57393732      -2.78853418      -1.21380227
C       -3.37778092      -3.59902448      -2.02117756
C       -3.42147114      -3.40318142      -3.41002640
C       -2.60980995      -2.40429601      -3.97506753
C       -1.80123304      -1.59895946      -3.16989524
C       -4.25601080      -4.27746979      -4.32467686
N       -5.51756932      -4.72436429      -3.75645536
C       -6.51118100      -3.78577014      -3.47707056
N       -7.71618565      -4.04760298      -3.06461867
C       -7.95099688      -5.37378090      -2.93605046
N       -9.12324463      -5.96616363      -2.55216774
C      -10.37326222      -5.31092377      -2.22609127
C      -10.84117287      -5.63088517      -0.81001982
N      -12.10396466      -4.98917754      -0.48765009
C      -12.18285427      -3.67148728      -0.08755315
O      -11.18775937      -2.96893733       0.05703206
C      -13.53489907      -3.20029228       0.12904099
C      -14.01020729      -1.97776286       0.56592318
C      -15.42339954      -2.06972785       0.57787647
C      -15.72769118      -3.34023707       0.14678419
Br     -17.45176858      -4.02499762      -0.04551578
O      -14.59207806      -4.03642352      -0.12607738
N       -9.05516901      -7.32348317      -2.56070639
C       -7.79798651      -7.57599607      -2.94994338
C       -7.07930450      -6.40072111      -3.19263318
C       -5.75101138      -6.10066081      -3.64666430
O       -4.93950340      -6.97613148      -3.92545468
H       -2.56220058      -2.94723358      -0.13829779
H       -3.96674533      -4.38324730      -1.54915531
H       -2.59640764      -2.24705610      -5.05229471
H       -1.18217158      -0.83133258      -3.62717840
H       -3.64029141      -5.12602052      -4.64211643
H       -4.51371670      -3.70328179      -5.22401637
H       -6.20006532      -2.73908151      -3.62744145
H      -11.11104600      -5.64644107      -2.96462368
H      -10.24781790      -4.23132204      -2.35962183
H      -10.08790971      -5.31279724      -0.07960485
H      -10.99463042      -6.70771830      -0.67970862
H      -12.97508075      -5.49274226      -0.62012140
H      -13.39723279      -1.12872444       0.83897388
H      -16.12879441      -1.30193684       0.86389403
H       -7.46991847      -8.60294280      -3.05054707
C       -1.79147126       1.79147126       1.79147126
C       -1.21256368       2.58339566       2.78031443
C       -2.01989895       3.38725819       3.59082582
C       -3.41013658       3.42142940       3.40311298
C       -3.97625142       2.60037571       2.41254636
C       -3.17105957       1.79179793       1.60723025
C       -4.32454559       4.25572827       4.27788359
N       -3.76127950       5.52334936       4.71376011
C       -3.49353672       6.51293487       3.76755011
N       -3.08680378       7.72195198       4.01965155
C       -2.95169903       7.96553324       5.34359597
N       -2.57135269       9.14361892       5.92660440
C       -2.25676750      10.39159204       5.26191773
C       -0.84165221      10.86991592       5.57050973
N       -0.53076954      12.13072223       4.91930052
C       -0.13907137      12.20405441       3.59876893
O        0.00730033      11.20562155       2.90134343
C        0.06652398      13.55450518       3.11816916
C        0.49318376      14.02503692       1.89019380
C        0.49715622      15.43880494       1.97360219
C        0.07186717      15.74816925       3.24484197
Br      -0.12672564      17.47516444       3.92039190
O       -0.18995004      14.61516304       3.94946587
N       -2.57133422       9.08368949       7.28433486
C       -2.95145130       7.82574116       7.54673350
C       -3.19684645       7.09853286       6.37727947
C       -3.64464217       5.76575141       6.08794291
O       -3.91326885       4.95788546       6.96993525
H       -0.13607489       2.57907202       2.93258504
H       -1.54674332       3.98376888       4.36863574
H       -5.05430231       2.57955968       2.26189646
H       -3.62919532       1.16537994       0.84610730
H       -4.63316371       3.64324934       5.13201532
H       -5.22885436       4.50456083       3.70759967
H       -3.64830534       6.19460853       2.72367441
H       -2.99771403      11.12694259       5.59745412
H       -2.39601493      10.25883268       4.18391417
H       -0.10862477      10.11914305       5.25254399
H       -0.70580977      11.03065146       6.64559612
H       -0.66547343      13.00405206       5.41841891
H        0.76483006      13.40859714       1.04321627
H        0.77429671      16.14125512       1.19987880
H       -3.04390750       7.50328156       8.57621928
C        1.79147126      -1.79147126       1.79147126
C        2.89640587      -2.43764261       1.24222529
C        3.70121145      -3.24866881       2.04810271
C        3.41916539      -3.40127556       3.41423800
C        2.28859738      -2.75599391       3.94458220
C        1.48015677      -1.95133894       3.13859203
C        4.24779668      -4.29350244       4.31685832
N        5.66758931      -4.32581482       4.00498484
C        6.43024808      -3.16991203       4.17386159
N        7.71941826      -3.07688717       4.03210187
C        8.29864701      -4.25546052       3.70672071
N        9.63367873      -4.48937939       3.51851789
C       10.71939012      -3.53972411       3.65116304
C       11.52277144      -3.39683896       2.36246745
N       12.62323881      -2.45841169       2.49914179
C       12.44799720      -1.09382991       2.40006758
O       11.35784208      -0.58846991       2.15335265
C       13.65474721      -0.32580954       2.62559362
C       13.88631579       1.03611917       2.57185035
C       15.25123278       1.23128787       2.89530600
C       15.77178590      -0.02056512       3.12879304
Br      17.53907823      -0.37687544       3.60632831
O       14.81526656      -0.97312769       2.96618470
N        9.90647181      -5.79159109       3.24129566
C        8.70089615      -6.37668756       3.24634226
C        7.67813046      -5.46531175       3.52921658
C        6.25432623      -5.55685681       3.68715346
O        5.64863754      -6.61677748       3.57567453
H        3.13752238      -2.32177277       0.18843681
H        4.54867907      -3.75772411       1.59274477
H        2.02367521      -2.87864695       4.99343629
H        0.61121843      -1.46028339       3.56918073
H        3.81333493      -5.29885531       4.29623813
H        4.17088734      -3.92290220       5.34722532
H        5.84418599      -2.27679975       4.44560254
H       11.35655385      -3.89638091       4.46917598
H       10.30443691      -2.57450365       3.95982121
H       10.87368319      -3.06179110       1.54483752
H       11.96295088      -4.35470151       2.06440496
H       13.54856782      -2.79663321       2.74274338
H       13.14718509       1.78796087       2.32775913
H       15.78465864       2.16996629       2.95214486
H        8.62652399      -7.44012390       3.05676046
C       -0.00445707       0.01189536      -1.78238275
H       -0.66409135       0.67374010      -2.43557963
H        0.65740317      -0.63156657      -2.45157240
C       -0.90989263      -0.90692880      -0.91072765
C        0.90977584       0.90977584      -0.90977584
C       -0.00465871       1.77757030       0.00794375
H       -0.66225468       2.44313916      -0.64384735
H        0.64322798       2.43503045       0.67728295
C       -1.78241447       0.00034974      -0.00472694
H       -2.45427497      -0.65498947       0.64260836
H       -2.43311707       0.67328779      -0.65473579
C       -0.91132561       0.90220522       0.91563759
C       -0.01476271      -0.02253852       1.78660255
H       -0.67934791      -0.69751639       2.42135241
H        0.63392994       0.61504881       2.47327442
C        0.01484550      -1.77751727      -0.01636693
H        0.67870853      -2.42144646      -0.68295456
H       -0.62264859      -2.45592969       0.64226336
C        1.78714474       0.01002794       0.00389507
H        2.44202412       0.67113390       0.66197326
H        2.45385902      -0.65136977      -0.64189061
C        0.91606151      -0.90478549       0.90901405
