162
Properties=species:S:1:pos:R:3 pbc="F F F"
C        1.79119953       1.79119953      -1.79119953
C        2.44366262       2.88824810      -1.23764616
C        3.21978846       3.71708980      -2.05290741
C        3.36339916       3.44639373      -3.42056749
C        2.72752413       2.31704306      -3.95334931
C        1.93126617       1.49959064      -3.14512468
N        4.09591995       4.33831955      -4.26906368
C        3.76701956       5.76973321      -4.15561543
N        2.39668330       6.06804844      -4.51822410
C        1.38971795       6.26192789      -3.61759203
O        1.42975933       6.27300566      -2.40065161
C        0.18582209       6.55811021      -4.39151850
C       -1.10468023       6.82002161      -3.97457158
C       -2.03942443       7.15159583      -4.96143809
C       -1.65789764       7.21303027      -6.31813021
Br      -2.94163075       7.71003441      -7.61588453
C       -0.34924572       6.93157831      -6.72042371
C        0.55063454       6.60153304      -5.72529877
C        1.97904449       6.29405957      -5.79836055
O        2.62501182       6.29394827      -6.82767596
C        4.99794286       3.81916790      -5.20226792
O        5.24916212       2.61756908      -5.32397866
C        5.75826042       4.80244480      -6.05927277
H        2.35186129       3.11602842      -0.17902559
H        3.72286136       4.56066277      -1.58852710
H        2.81075031       2.08170822      -5.01201062
H        1.42302436       0.64638210      -3.58585528
H        4.40624304       6.37044470      -4.80498775
H        3.96194835       6.10528057      -3.13224681
H       -1.37612532       6.78125395      -2.92407502
H       -3.06458294       7.37465019      -4.67018828
H       -0.04015652       6.98277628      -7.75915638
H        6.29758939       5.51972296      -5.43487739
H        5.08225109       5.31005080      -6.74899427
H        6.50334554       4.26126207      -6.65179493
C       -1.79119953      -1.79119953      -1.79119953
C       -2.96468037      -2.33080134      -1.27407517
C       -3.75163381      -3.16878015      -2.06937171
C       -3.38168946      -3.45894266      -3.38972825
C       -2.21505261      -2.87812509      -3.90473880
C       -1.41338740      -2.05855544      -3.10403864
N       -4.14761274      -4.37752111      -4.17816933
C       -4.48557601      -5.66322955      -3.54356263
N       -3.31973511      -6.45489301      -3.20832771
C       -2.77905800      -6.53258731      -1.95759257
O       -3.15876488      -6.02830420      -0.91634751
C       -1.64152248      -7.44574542      -2.04818289
C       -0.74790769      -7.86151421      -1.08049107
C        0.20131081      -8.81801196      -1.45690835
C        0.22479872      -9.32493663      -2.77312492
Br       1.49510936     -10.65085285      -3.22854471
C       -0.68057332      -8.88110255      -3.74108045
C       -1.60251807      -7.93227145      -3.34267684
C       -2.69303176      -7.29638800      -4.08204486
O       -2.96488458      -7.54076812      -5.24098334
C       -4.45386711      -4.06073440      -5.50477717
O       -4.14119838      -2.99934324      -6.05016824
C       -5.27923527      -5.05422289      -6.28651983
H       -3.27534803      -2.11660703      -0.25496023
H       -4.66599385      -3.56732757      -1.63872981
H       -1.89382117      -3.08818777      -4.92246022
H       -0.49718325      -1.64333410      -3.51474439
H       -5.10605226      -6.27326803      -4.20235520
H       -5.07939816      -5.47678508      -2.64329249
H       -0.79050762      -7.46992024      -0.06877579
H        0.91617339      -9.17779873      -0.71863018
H       -0.67902386      -9.26807957      -4.75467272
H       -6.21761146      -5.26707447      -5.76750381
H       -4.71009188      -5.96816141      -6.46304287
H       -5.53567872      -4.62151861      -7.25920521
C       -1.79119953       1.79119953       1.79119953
C       -1.22980810       2.47449574       2.86525304
C       -2.04407584       3.25089253       3.69481729
C       -3.41900490       3.36390836       3.44744712
C       -3.96054656       2.69696871       2.34040123
C       -3.15272004       1.90053178       1.52272966
N       -4.26449771       4.09729242       4.34151306
C       -4.11825799       3.79772319       5.77638701
N       -4.44924450       2.42677951       6.10693182
C       -3.52625719       1.44057855       6.30240214
O       -2.31029760       1.50343257       6.28968644
C       -4.27160822       0.22833191       6.63551067
C       -3.82550200      -1.04900721       6.91341817
C       -4.78815731      -1.99548424       7.28093642
C       -6.15045504      -1.63814262       7.36095041
Br      -7.41420533      -2.93613080       7.90621367
C       -6.58261988      -0.34275801       7.06289443
C       -5.61102040       0.56904979       6.69739616
C       -5.71682092       1.98977630       6.36486740
O       -6.75800879       2.61638417       6.37224308
C       -5.22410362       4.97182280       3.82345225
O       -5.37286072       5.19793674       2.61991241
C       -6.07693072       5.73456564       4.80848164
H       -0.16558847       2.40671480       3.07461202
H       -1.57370792       3.77839374       4.51994956
H       -5.02478493       2.75603370       2.12365053
H       -3.59952778       1.36812055       0.68761342
H       -4.76834250       4.43602875       6.37730425
H       -3.09270489       4.01795707       6.08881377
H       -2.77095538      -1.30156730       6.85981556
H       -4.47345096      -3.01064490       7.51744946
H       -7.62588860      -0.05211303       7.12800058
H       -5.44963784       6.29889239       5.50365950
H       -6.74417377       5.05558840       5.34153399
H       -6.69341200       6.45812789       4.26486266
C        1.79119953      -1.79119953       1.79119953
C        1.61769096      -1.78029655       3.17156937
C        2.45035079      -2.55841585       3.98101902
C        3.44863461      -3.36456913       3.41715663
C        3.58539736      -3.38974009       2.02277905
C        2.76960533      -2.59434903       1.21202712
N        4.35010067      -4.10207095       4.25113157
C        4.98340228      -3.35647111       5.35249481
N        5.82168202      -2.26805380       4.89322001
C        5.43663837      -0.95882897       4.87377054
O        4.39779424      -0.45069935       5.25492301
C        6.57439677      -0.19432540       4.36672862
C        6.71218202       1.16098398       4.13871492
C        7.96790855       1.61322229       3.71892323
C        9.03474566       0.70676828       3.54528545
Br      10.72891898       1.36545164       3.02082086
C        8.87060006      -0.66313004       3.76902621
C        7.61868894      -1.08169819       4.17707922
C        7.12895633      -2.41494947       4.52755882
O        7.81395903      -3.41861924       4.51405776
C        4.64926659      -5.43134274       3.93876934
O        4.14733413      -6.04786232       2.99551341
C        5.59031308      -6.16961153       4.86005338
H        0.84743158      -1.16741224       3.63207147
H        2.28369073      -2.53403957       5.05432093
H        4.35484076      -3.99756748       1.55206091
H        2.91344486      -2.60667246       0.13514442
H        5.61417984      -4.01139228       5.95610338
H        4.20734595      -2.97102444       6.02110533
H        5.88304525       1.84508588       4.29124428
H        8.11790024       2.67652730       3.53888259
H        9.68431268      -1.37033306       3.64713041
H        5.22147110      -6.14187018       5.88884845
H        6.59670527      -5.75402169       4.79056920
H        5.63644291      -7.22133632       4.55862331
C       -0.00445707       0.01189536      -1.78238275
H       -0.66409135       0.67374010      -2.43557963
H        0.65740317      -0.63156657      -2.45157240
C       -0.90989263      -0.90692880      -0.91072765
C        0.90977584       0.90977584      -0.90977584
C       -0.00465871       1.77757030       0.00794375
H       -0.66225468       2.44313916      -0.64384735
H        0.64322798       2.43503045       0.67728295
C       -1.78241447       0.00034974      -0.00472694
H       -2.45427497      -0.65498947       0.64260836
H       -2.43311707       0.67328779      -0.65473579
C       -0.91132561       0.90220522       0.91563759
C       -0.01476271      -0.02253852       1.78660255
H       -0.67934791      -0.69751639       2.42135241
H        0.63392994       0.61504881       2.47327442
C        0.01484550      -1.77751727      -0.01636693
H        0.67870853      -2.42144646      -0.68295456
H       -0.62264859      -2.45592969       0.64226336
C        1.78714474       0.01002794       0.00389507
H        2.44202412       0.67113390       0.66197326
H        2.45385902      -0.65136977      -0.64189061
C        0.91606151      -0.90478549       0.90901405
