170
Properties=species:S:1:pos:R:3 pbc="F F F"
C        1.79119953       1.79119953      -1.79119953
C        2.44366262       2.88824810      -1.23764616
C        3.21978846       3.71708980      -2.05290741
C        3.36339916       3.44639373      -3.42056749
C        2.72752413       2.31704306      -3.95334931
C        1.93126617       1.49959064      -3.14512468
N        4.09591995       4.33831955      -4.26906368
C        3.76701956       5.76973321      -4.15561543
N        2.39668330       6.06804844      -4.51822410
C        1.38971795       6.26192789      -3.61759203
O        1.42975933       6.27300566      -2.40065161
C        0.18582209       6.55811021      -4.39151850
C       -1.10468023       6.82002161      -3.97457158
C       -2.03942443       7.15159583      -4.96143809
C       -1.65789764       7.21303027      -6.31813021
C       -0.34924572       6.93157831      -6.72042371
C        0.55063454       6.60153304      -5.72529877
C        1.97904449       6.29405957      -5.79836055
O        2.62501182       6.29394827      -6.82767596
C        4.99794286       3.81916790      -5.20226792
O        5.24916212       2.61756908      -5.32397866
C        5.75826042       4.80244480      -6.05927277
H        2.35186129       3.11602842      -0.17902559
H        3.72286136       4.56066277      -1.58852710
H        2.81075031       2.08170822      -5.01201062
H        1.42302436       0.64638210      -3.58585528
H        4.40624304       6.37044470      -4.80498775
H        3.96194835       6.10528057      -3.13224681
H       -1.37612532       6.78125395      -2.92407502
H       -3.06458294       7.37465019      -4.67018828
H       -0.04015652       6.98277628      -7.75915638
H        6.29758939       5.51972296      -5.43487739
H        5.08225109       5.31005080      -6.74899427
H        6.50334554       4.26126207      -6.65179493
C       -2.63501623       7.59132696      -7.30592110
C       -3.45335306       7.90815045      -8.13319598
Br      -4.77653449       8.42042723      -9.47082949
C       -1.79119953      -1.79119953      -1.79119953
C       -2.90683317      -1.24494027      -2.41778345
C       -3.73505539      -2.06102194      -3.19370833
C       -3.44548735      -3.42186023      -3.36301280
C       -2.29814263      -3.94658731      -2.75318656
C       -1.48088087      -3.13803191      -1.95706870
N       -4.33557661      -4.27283785      -4.09488873
C       -5.76322100      -4.18705205      -3.74209514
N       -6.03426778      -4.57550959      -2.37317846
C       -6.22620591      -3.69375812      -1.34927384
O       -6.25677432      -2.47666851      -1.36997377
C       -6.49136527      -4.49081960      -0.15326593
C       -6.73935737      -4.09810124       1.14754564
C       -7.04083698      -5.10443607       2.07166356
C       -7.08723422      -6.45585049       1.66982187
C       -6.82021922      -6.83333005       0.35079295
C       -6.51984728      -5.81930326      -0.53831581
C       -6.23380581      -5.86536548      -1.97229332
O       -6.22791021      -6.88441520      -2.63431062
C       -3.81628854      -5.18365896      -5.01943117
O       -2.61705178      -5.28252760      -5.29113049
C       -4.79801234      -6.04415057      -5.77781508
H       -3.14952144      -0.19158732      -2.30580654
H       -4.59354104      -1.60223876      -3.67627144
H       -2.04776604      -4.99999497      -2.85670815
H       -0.61304720      -3.57309958      -1.46911496
H       -6.36378458      -4.83581555      -4.38207536
H       -6.11761798      -3.16619477      -3.91566297
H       -6.71260842      -3.05145820       1.43486298
H       -7.25221086      -4.83265945       3.10461478
H       -6.86017046      -7.86782427       0.02621859
H       -5.53328511      -5.42284095      -6.29606367
H       -5.28416022      -6.75217398      -5.10496197
H       -4.25950836      -6.61645848      -6.54043570
C       -7.43474341      -7.46450192       2.63701350
C       -7.72578236      -8.30924750       3.44703649
Br      -8.19636774      -9.67512965       4.75677516
C       -1.79119953       1.79119953       1.79119953
C       -1.97801355       3.12990578       1.46163755
C       -2.75395566       3.94591362       2.28991639
C       -3.36176677       3.42720104       3.44139257
C       -3.19138964       2.06833761       3.73818926
C       -2.39634390       1.25518681       2.92445077
N       -4.09301767       4.28085771       4.32942781
C       -3.42823974       5.53231605       4.73181240
N       -2.20139223       5.31182901       5.46973460
C       -0.95301946       5.39220506       4.92401335
O       -0.61988074       5.69175781       3.79177805
C       -0.00499673       5.12633907       6.00411500
C        1.37519085       5.07384642       5.99125739
C        2.01779842       4.87355642       7.21785149
C        1.26872831       4.73666159       8.40532956
C       -0.12828320       4.77988796       8.39458515
C       -0.73577552       4.97294078       7.16875005
C       -2.15009615       5.10325739       6.81811108
O       -3.05905315       5.06386081       7.62372207
C       -5.32818372       3.86026711       4.83092785
O       -5.87120409       2.79618476       4.52332101
C       -6.06692706       4.80494318       5.74810775
H       -1.52130686       3.55415222       0.57145621
H       -2.88716677       4.98454185       2.00034261
H       -3.64189184       1.63449819       4.62807913
H       -2.25339765       0.21146475       3.19039934
H       -4.07930199       6.13357914       5.36879437
H       -3.22304804       6.13491831       3.84150937
H        1.93501469       5.19523550       5.06898283
H        3.10554191       4.83663335       7.24916408
H       -0.71656661       4.68405822       9.30115132
H       -6.21412060       5.77406980       5.26399934
H       -5.53394238       4.91345497       6.69389881
H       -7.05891011       4.39414544       5.96334700
C        1.96092316       4.56660694       9.65654805
C        2.54063634       4.42418617      10.70444354
Br       3.47798352       4.19390384      12.39880191
C        1.79119953      -1.79119953       1.79119953
C        2.42178782      -1.24376954       2.90399952
C        3.25917667      -2.04188151       3.68872749
C        3.45829156      -3.39400437       3.37806444
C        2.78710115      -3.93667199       2.27414337
C        1.96753331      -3.13497246       1.47347571
N        4.37523375      -4.19087571       4.13719373
C        5.70942279      -3.61188084       4.37106456
N        6.45154004      -3.38315296       3.14826284
C        6.56484574      -2.16892478       2.53546736
O        6.13807020      -1.08265984       2.88268655
C        7.40722793      -2.37003910       1.35818377
C        7.82304859      -1.47544326       0.39142111
C        8.70405676      -1.95402841      -0.58447567
C        9.13879734      -3.29582445      -0.56135896
C        8.69563446      -4.18850135       0.41862050
C        7.82191139      -3.68985904       1.36569592
C        7.20961907      -4.33417214       2.52767340
O        7.40731684      -5.48897110       2.85034810
C        4.00649199      -5.47980356       4.53308313
O        2.90207102      -5.98099703       4.30764181
C        5.00178549      -6.27103188       5.34716062
H        2.27923824      -0.19935487       3.16832218
H        3.73014448      -1.58648834       4.55541841
H        2.92501676      -4.98002415       1.99942824
H        1.48088896      -3.56965732       0.60471547
H        6.31747212      -4.26997971       4.99422366
H        5.60403630      -2.67257911       4.92286031
H        7.48831111      -0.44266406       0.39822848
H        9.06191551      -1.27563224      -1.35729223
H        9.02795442      -5.22073106       0.45309066
H        5.29359930      -5.71592312       6.24266732
H        5.87205152      -6.52790639       4.74133825
H        4.53335210      -7.20325281       5.67979763
C       10.07296428      -3.74859150      -1.55932395
C       10.85532909      -4.12778391      -2.39511963
Br      12.12034682      -4.74090595      -3.74653055
C       -0.00445707       0.01189536      -1.78238275
H       -0.66409135       0.67374010      -2.43557963
H        0.65740317      -0.63156657      -2.45157240
C       -0.90989263      -0.90692880      -0.91072765
C        0.90977584       0.90977584      -0.90977584
C       -0.00465871       1.77757030       0.00794375
H       -0.66225468       2.44313916      -0.64384735
H        0.64322798       2.43503045       0.67728295
C       -1.78241447       0.00034974      -0.00472694
H       -2.45427497      -0.65498947       0.64260836
H       -2.43311707       0.67328779      -0.65473579
C       -0.91132561       0.90220522       0.91563759
C       -0.01476271      -0.02253852       1.78660255
H       -0.67934791      -0.69751639       2.42135241
H        0.63392994       0.61504881       2.47327442
C        0.01484550      -1.77751727      -0.01636693
H        0.67870853      -2.42144646      -0.68295456
H       -0.62264859      -2.45592969       0.64226336
C        1.78714474       0.01002794       0.00389507
H        2.44202412       0.67113390       0.66197326
H        2.45385902      -0.65136977      -0.64189061
C        0.91606151      -0.90478549       0.90901405
