170
Properties=species:S:1:pos:R:3 pbc="F F F"
O        1.29711837       8.29071592       4.74461184
C        1.29270891       7.11261417       5.11979914
C        1.41560844       5.92603559       4.16751939
S        1.19710016       6.46342217       2.43811963
C        1.55528712       5.00688389       1.58298152
N        1.80583497       3.83424121       2.10780893
N        2.09681957       2.97586845       1.07674893
C        2.01078556       3.63091355      -0.06951277
C        2.27800760       3.06244536      -1.39989561
C        3.07606961       3.77701295      -2.31482081
C        3.34856850       3.27951227      -3.59280599
C        2.85871905       2.03615479      -3.97245156
C        2.09547005       1.29301417      -3.07497184
C        1.79986883       1.79986883      -1.79986883
N        1.64802878       4.93506950       0.21880864
C        1.42275561       6.00717798      -0.71746658
N        1.17674086       6.91794599       6.46702322
C        1.20561311       5.73816557       7.20476506
C        1.01679101       5.84180874       8.58159943
C        1.03153058       4.68451072       9.36127615
C        1.23896950       3.45982303       8.74341442
Br       1.26186005       1.86639808       9.74724141
C        1.42635578       3.44367888       7.37242337
N        1.41483609       4.55780131       6.59858661
H        0.63127942       5.19581665       4.37986514
H        2.40941735       5.48479918       4.28833598
H        3.51674942       4.73209204      -2.03921536
H        3.95538312       3.85898274      -4.28461506
H        3.07748843       1.63964368      -4.96071422
H        1.72929549       0.31441747      -3.37809691
H        0.68799966       6.71175755      -0.32276398
H        1.03077975       5.60487105      -1.65382215
H        2.37549653       6.51720757      -0.88476228
H        1.07249800       7.78874267       6.96849178
H        0.85204438       6.80349044       9.05729229
H        0.87961273       4.75183432      10.43478785
H        1.59478660       2.51624835       6.83134586
O       -6.05296610       5.87553068      -4.66578703
C       -4.84823735       5.96528754      -4.40257414
C       -3.99297973       4.78040650      -3.96155141
S       -5.04390481       3.35287219      -3.53137007
C       -3.85703254       2.13032606      -3.25248301
N       -2.55748438       2.28654772      -3.26133059
N       -1.99343651       1.05216491      -3.05466748
C       -2.95520327       0.15506544      -2.91107405
C       -2.75323257      -1.28688929      -2.70022672
C       -3.50750803      -2.21222673      -3.44816862
C       -3.35521714      -3.59122497      -3.27444464
C       -2.41643362      -4.07762501      -2.37326677
C       -1.63291869      -3.18496443      -1.64557293
C       -1.79986883      -1.79986883      -1.79986883
N       -4.16585345       0.81753584      -3.01597203
C       -5.48571520       0.24868663      -2.91037161
N       -4.30140258       7.21005349      -4.53631453
C       -2.98244430       7.62728740      -4.38385671
C       -2.72084611       8.98681594      -4.54297015
C       -1.41376665       9.45217014      -4.39316864
C       -0.40718996       8.54562105      -4.09380920
Br       1.37280141       9.12073096      -3.87454910
C       -0.74886483       7.21131912      -3.96006559
N       -2.01334168       6.74090850      -4.10161762
H       -3.42514864       5.04423446      -3.06631675
H       -3.32712586       4.50656287      -4.78531756
H       -4.21902483      -1.87221748      -4.19681451
H       -3.96126163      -4.28321718      -3.85450211
H       -2.28590568      -5.14894898      -2.24299168
H       -0.89100783      -3.57743788      -0.95336416
H       -6.18965172       0.98550372      -2.51837320
H       -5.46991800      -0.59821538      -2.22133958
H       -5.79819830      -0.07085945      -3.90840863
H       -4.98948969       7.89993449      -4.80319369
H       -3.51442137       9.69039336      -4.77421453
H       -1.19828374      10.51056636      -4.50894182
H       -0.00534972       6.45338504      -3.72772440
O       -6.82420908      -5.70206653       3.72107990
C       -5.61224917      -5.86807058       3.54134535
C       -4.63922441      -4.72594450       3.26084473
S       -5.54397731      -3.19112662       2.86955201
C       -4.25147621      -2.05004079       2.77775406
N       -2.97190971      -2.30980738       2.87016492
N       -2.30342633      -1.11253930       2.80505205
C       -3.18166929      -0.13331873       2.66286132
C       -2.85742800       1.29952296       2.58339762
C       -3.59854816       2.22431216       3.34504306
C       -3.33131254       3.59579523       3.29377898
C       -2.29014689       4.07094498       2.50623354
C       -1.51916229       3.17480529       1.76948847
C       -1.79986883       1.79986883       1.79986883
N       -4.44249197      -0.70289187       2.62468954
C       -5.70400981      -0.02417258       2.46756294
N       -5.17139370      -7.15901460       3.61528452
C       -3.87894673      -7.66786509       3.52793197
C       -3.73214598      -9.05197878       3.59683313
C       -2.45527774      -9.60791104       3.50739845
C       -1.36373193      -8.76502694       3.35667312
Br       0.38067079      -9.46270675       3.22439427
C       -1.59402565      -7.40146872       3.30505437
N       -2.82751151      -6.84330355       3.38984282
H       -4.02275775      -4.96736895       2.39184213
H       -4.02288746      -4.56783646       4.15082956
H       -4.39078713       1.88780632       4.00946338
H       -3.92892548       4.28919830       3.88085713
H       -2.07076718       5.13510795       2.47197120
H       -0.69733905       3.55686212       1.16760870
H       -6.42693138      -0.67138781       1.96697762
H       -5.57063581       0.86738554       1.85145160
H       -6.07073857       0.24463766       3.46209015
H       -5.92772612      -7.80956011       3.77458289
H       -4.59150564      -9.70507698       3.71181388
H       -2.32858835     -10.68579305       3.55386390
H       -0.78032158      -6.69025657       3.18962407
O       -0.31628594      -8.88528858      -3.72578019
C       -0.23294010      -7.76875215      -4.25028810
C        0.15215573      -6.50602017      -3.48405125
S        0.10301591      -6.80460973      -1.68522295
C        0.73833526      -5.31855732      -1.07770309
N        1.05223636      -4.25852718      -1.77849628
N        1.57495690      -3.33190182      -0.91091964
C        1.56543863      -3.83176521       0.31400804
C        2.07054863      -3.15249112       1.51730883
C        2.89378470      -3.85474800       2.41937068
C        3.38889467      -3.25213396       3.57985813
C        3.10176139      -1.91925089       3.84631313
C        2.31842871      -1.19143631       2.95359103
C        1.79986883      -1.79986883       1.79986883
N        1.01829009      -5.10116953       0.24483002
C        0.79536165      -6.01763663       1.33440190
N       -0.50246722      -7.71878179      -5.58865094
C       -0.43408187      -6.64723668      -6.47414119
C       -0.81399610      -6.88473212      -7.79373570
C       -0.76768432      -5.83833609      -8.71588662
C       -0.33912964      -4.58823094      -8.29372319
Br      -0.26360153      -3.13972646      -9.49510820
C        0.02840352      -4.43735673      -6.96814896
N       -0.01047976      -5.44235867      -6.05782812
H       -0.56288193      -5.70830690      -3.69819405
H        1.16586212      -6.21711138      -3.77709294
H        3.17985843      -4.88524138       2.22295701
H        4.01012876      -3.82212862       4.26672354
H        3.49392383      -1.44270392       4.74121859
H        2.11207204      -0.14443365       3.16530418
H       -0.06216318      -6.66007500       1.12460938
H        0.58014881      -5.46071345       2.24861069
H        1.69587897      -6.62611279       1.45547462
H       -0.77282162      -8.62060920      -5.95503869
H       -1.15109102      -7.86502278      -8.11568922
H       -1.06695096      -6.00961431      -9.74600415
H        0.37377561      -3.48364966      -6.57773618
C       -0.00445707       0.01189536      -1.78238275
H       -0.66409135       0.67374010      -2.43557963
H        0.65740317      -0.63156657      -2.45157240
C       -0.90989263      -0.90692880      -0.91072765
C        0.90977584       0.90977584      -0.90977584
C       -0.00465871       1.77757030       0.00794375
H       -0.66225468       2.44313916      -0.64384735
H        0.64322798       2.43503045       0.67728295
C       -1.78241447       0.00034974      -0.00472694
H       -2.45427497      -0.65498947       0.64260836
H       -2.43311707       0.67328779      -0.65473579
C       -0.91132561       0.90220522       0.91563759
C       -0.01476271      -0.02253852       1.78660255
H       -0.67934791      -0.69751639       2.42135241
H        0.63392994       0.61504881       2.47327442
C        0.01484550      -1.77751727      -0.01636693
H        0.67870853      -2.42144646      -0.68295456
H       -0.62264859      -2.45592969       0.64226336
C        1.78714474       0.01002794       0.00389507
H        2.44202412       0.67113390       0.66197326
H        2.45385902      -0.65136977      -0.64189061
C        0.91606151      -0.90478549       0.90901405
