157
Properties=species:S:1:pos:R:3 pbc="F F F"
C        0.00000000       0.00000000       0.00000000
O        0.38721434       7.38081189       5.65451586
C        0.38280489       6.20271015       6.02970316
C        0.50570442       5.01613157       5.07742342
S        0.28719614       5.55351815       3.34802366
C        0.64538310       4.09697987       2.49288555
N        0.89593095       2.92433719       3.01771295
N        1.18691554       2.06596442       1.98665296
C        1.10088153       2.72100952       0.84039125
C        1.36810358       2.15254134      -0.48999159
C        2.16616559       2.86710893      -1.40491679
C        2.43866447       2.36960825      -2.68290196
C        1.94881503       1.12625077      -3.06254753
C        1.18556602       0.38311015      -2.16506781
C        0.88996481       0.88996481      -0.88996481
N        0.73812476       4.02516548       1.12871267
C        0.51285158       5.09727396       0.19243744
N        0.26683683       6.00804196       7.37692724
C        0.29570909       4.82826155       8.11466909
C        0.10688699       4.93190472       9.49150345
C        0.12162655       3.77460670      10.27118017
C        0.32906547       2.54991901       9.65331844
C        0.51645176       2.53377486       8.28232739
N        0.50493206       3.64789729       7.50849063
H       -0.27862461       4.28591262       5.28976916
H        1.49951333       4.57489515       5.19824000
H        2.60684540       3.82218802      -1.12931133
H        3.04547910       2.94907871      -3.37471103
H        2.16758441       0.72973966      -4.05081020
H        0.81939146      -0.59548655      -2.46819288
H       -0.22190436       5.80185353       0.58714005
H        0.12087573       4.69496702      -0.74391813
H        1.46559250       5.60730355       0.02514175
H        0.16259398       6.87883864       7.87839580
H       -0.05785964       5.89358642       9.96719631
H       -0.03029130       3.84193030      11.34469187
H        0.68488257       1.60634433       7.74124989
C        0.34656701       1.33162662      10.42081916
C        0.36122455       0.31130674      11.06360101
Br       0.38492455      -1.33846420      12.10292489
O        6.61986810      -5.89005153      -2.84332695
C        6.55211348      -5.39596980      -1.71195555
C        5.35783809      -4.58309680      -1.21915386
S        4.26045222      -4.14448600      -2.60865684
C        2.93758102      -3.41025189      -1.77680655
N        2.85921384      -3.16910194      -0.49266708
N        1.61820596      -2.63494448      -0.24948849
C        0.95413294      -2.54536213      -1.39027061
C       -0.42237811      -2.04812816      -1.54013024
C       -1.33975296      -2.76647866      -2.33195969
C       -2.65498642      -2.32649923      -2.50968903
C       -3.09430338      -1.17529024      -1.86801972
C       -2.21775642      -0.46447535      -1.05151221
C       -0.88996481      -0.88996481      -0.88996481
N        1.77980058      -3.01971273      -2.39466542
C        1.48565076      -3.10020897      -3.80312988
N        7.62488355      -5.62513153      -0.89770357
C        7.82842311      -5.27030139       0.43257673
C        9.05586311      -5.60464916       1.00149780
C        9.30716857      -5.26329677       2.33107512
C        8.32388727      -4.60291400       3.05336069
C        7.12925973      -4.31441772       2.41725876
N        6.86742045      -4.63788000       1.12612083
H        5.70318052      -3.64749564      -0.77320373
H        4.80291889      -5.18537600      -0.49371136
H       -1.04830584      -3.69709401      -2.81294489
H       -3.33811876      -2.89257052      -3.13857956
H       -4.11921901      -0.83538104      -1.99353421
H       -2.57696622       0.42751162      -0.54264320
H        2.40028807      -3.00187118      -4.39122601
H        0.81555032      -2.28673337      -4.08857783
H        1.02030221      -4.07051136      -3.99754515
H        8.35124345      -6.14863623      -1.36564404
H        9.82138189      -6.11876263       0.42885028
H       10.26239580      -5.51328302       2.78394010
H        6.32045075      -3.80043573       2.93000796
C        8.54495174      -4.22846437       4.42613815
C        8.73009323      -3.91486280       5.57583928
Br       9.02945137      -3.40779560       7.43480877
O       -4.08036778       4.84821787      -6.81507528
C       -3.78621090       3.64903553      -6.87943455
C       -3.28955748       2.83940645      -5.68455135
S       -2.85028467       3.94098746      -4.29858151
C       -2.50538066       2.79664803      -3.05255127
N       -2.48223796       1.49348877      -3.17317155
N       -2.22654095       0.96987431      -1.93018825
C       -2.08553690       1.95981007      -1.06384716
C       -1.83012200       1.80389759       0.37661691
C       -2.57343043       2.56311242       1.30164846
C       -2.35820246       2.45408096       2.67889126
C       -1.41835295       1.55399881       3.16526157
C       -0.69357633       0.76592833       2.27423932
C       -0.88996481       0.88996481       0.88996481
N       -2.24205993       3.14823681      -1.75571917
C       -2.15790091       4.48581797      -1.22603079
N       -3.93836066       3.06429537      -8.10470448
C       -3.76057081       1.73883976      -8.49010903
C       -3.94913595       1.43523396      -9.83708165
C       -3.77563623       0.12023500     -10.27081815
C       -3.42386841      -0.85219718      -9.34600519
C       -3.26356972      -0.46996623      -8.02570426
N       -3.42750173       0.80282693      -7.58598994
H       -2.38632751       2.28892557      -5.95773423
H       -4.08671759       2.15935235      -5.36990147
H       -3.35055989       3.24431559       0.96346927
H       -2.93594915       3.06322550       3.37009419
H       -1.25549001       1.45696060       4.23568366
H        0.02942834       0.05428604       2.66724009
H       -1.80579670       5.17931529      -1.99230287
H       -1.44598634       4.51231936      -0.39854482
H       -3.15522796       4.77990945      -0.88738310
H       -4.24292135       3.72539825      -8.80528277
H       -4.22140021       2.20232969     -10.55519944
H       -3.91401409      -0.12772244     -11.31934452
H       -2.99013085      -1.18549497      -7.25465887
C       -3.23034672      -2.21981399      -9.75315826
C       -3.06827230      -3.36519307     -10.09414895
Br      -2.80621168      -5.21717416     -10.64550206
O       -6.80519890      -4.96800443       3.95070485
C       -6.80248709      -4.58229969       2.77599927
C       -5.59447027      -3.93196289       2.10691995
S       -4.33652554      -3.48077992       3.34843624
C       -3.03991161      -2.94994935       2.33943968
N       -3.06303361      -2.82930666       1.03628213
N       -1.80912372      -2.43821625       0.63713448
C       -1.03467512      -2.31362578       1.70254914
C        0.38767324      -1.93799531       1.68496795
C        1.31036664      -2.66885163       2.45897304
C        2.66963240      -2.34178398       2.47975830
C        3.14409154      -1.29723615       1.69628564
C        2.25889780      -0.57985737       0.89498881
C        0.88996481      -0.88996481       0.88996481
N       -1.79936152      -2.61891675       2.81502233
C       -1.38112173      -2.60478364       4.19402619
N       -7.96338223      -4.77833498       2.08299880
C       -8.26061932      -4.52222608       0.74769479
C       -9.56075417      -4.78669649       0.32134593
C       -9.90646158      -4.53936617      -1.00785151
C       -8.94263499      -4.04011421      -1.87181318
C       -7.67264084      -3.81219490      -1.37165484
N       -7.31858212      -4.04610659      -0.08318576
H       -5.89828635      -3.00994456       1.60586064
H       -5.16499239      -4.64461035       1.39655052
H        0.98640914      -3.52254382       3.04939179
H        3.35775061      -2.91351528       3.09800296
H        4.20183416      -1.04641396       1.69988614
H        2.64407354       0.22669154       0.27471579
H       -2.22395505      -2.36970119       4.84706298
H       -0.61913699      -1.83684756       4.34205031
H       -0.98513234      -3.59434916       4.43853748
H       -8.68467566      -5.18819230       2.65952018
H      -10.31014690      -5.17447114       1.00420623
H      -10.91833713      -4.73593140      -1.35064715
H       -6.87465038      -3.42347181      -1.99884442
C       -9.25958251      -3.76656341      -3.24960642
C       -9.52502606      -3.53746461      -4.40350827
Br      -9.95422582      -3.16703123      -6.26926995
