189
Properties=species:S:1:pos:R:3 pbc="F F F"
C        0.00000000       0.00000000       0.00000000
C        0.88107444       0.88107444      -0.88107444
C        1.59434838       1.93616900      -0.31401143
C        2.40141909       2.74945531      -1.11778835
C        2.48706149       2.50553504      -2.49324576
C        1.76030850       1.44243672      -3.05311933
C        0.96189016       0.62804542      -2.24873968
C        3.30358865       3.35093227      -3.40882892
O        3.03590691       3.33595799      -4.61075810
C        4.44458780       4.18006769      -2.81684196
N        5.09722166       4.86731093      -3.92390759
C        4.60882229       6.11086950      -4.28219481
O        3.78140593       6.69650557      -3.57811039
N        5.09789197       6.67543021      -5.45412231
C        4.67355181       8.04472646      -5.75577187
C        5.73921636       9.04660798      -5.30622137
O        6.87039949       9.04444751      -5.79676740
C        5.43340371      10.06697667      -4.25764454
C        4.40800948       9.92158120      -3.31716212
C        4.20014615      10.90132946      -2.33867458
C        5.01573282      12.02831311      -2.29741787
Br       4.73195188      13.34458276      -0.97178913
C        6.04296706      12.18694834      -3.22329900
C        6.25367149      11.20588158      -4.19608017
C        6.01471986       5.97943820      -6.29468195
C        6.41861987       6.46109175      -7.54881145
C        7.31735646       5.74025092      -8.34652350
C        7.84530455       4.53553285      -7.89692962
C        7.46052537       4.04259617      -6.65508116
C        6.53992533       4.75787808      -5.87115877
C        6.10095376       4.18673204      -4.59088258
O        6.60531683       3.14607159      -4.17433521
H        1.52301485       2.13861371       0.75217947
H        2.92928302       3.57314019      -0.64685051
H        1.81477835       1.24445622      -4.12328233
H        0.40819347      -0.19173229      -2.69917657
H        5.14816118       3.51353123      -2.30799845
H        4.04465978       4.90557961      -2.10152207
H        3.70694083       8.26287126      -5.29537700
H        4.49352651       8.17549321      -6.82682354
H        3.76467271       9.04828753      -3.29426052
H        3.40629938      10.76352702      -1.60787622
H        6.68884143      13.06051944      -3.19422640
H        7.06950372      11.33380194      -4.90644590
H        6.05479731       7.39971189      -7.95179382
H        7.60515954       6.12848156      -9.32142000
H        8.54919705       3.98034870      -8.51174719
H        7.86657191       3.09805516      -6.30196642
C       -0.88107444      -0.88107444      -0.88107444
C       -0.29857122      -1.69159093      -1.85436665
C       -1.10199274      -2.49924743      -2.66742259
C       -2.49212978      -2.48785751      -2.50585500
C       -3.06709614      -1.66383424      -1.52493416
C       -2.26368371      -0.86476396      -0.71022758
C       -3.40563506      -3.30034033      -3.35737445
O       -4.58712560      -2.96161106      -3.43388636
C       -2.83857002      -4.52424757      -4.07867986
N       -3.94189100      -5.15217423      -4.79437496
C       -4.19455440      -4.72261542      -6.08471679
O       -3.40641396      -3.97677559      -6.67283235
N       -5.35946559      -5.17603556      -6.69194335
C       -5.55229324      -4.82155553      -8.10020137
C       -5.11217504      -5.97284779      -9.00702289
O       -5.67216165      -7.07064994      -8.96880281
C       -3.98791607      -5.79438574      -9.97572311
C       -2.99505629      -4.81931498      -9.83238153
C       -1.94918838      -4.73173521     -10.75922660
C       -1.89270968      -5.61759732     -11.83115680
Br      -0.47631385      -5.49608539     -13.07592453
C       -2.87035517      -6.59619773     -11.98666150
C       -3.91079471      -6.68686265     -11.05797588
C       -6.29572361      -5.99593845      -5.99717795
C       -7.54207788      -6.35442959      -6.53201560
C       -8.43598053      -7.15728075      -5.81086960
C       -8.09254108      -7.63408506      -4.55114088
C       -6.86029208      -7.29320715      -4.00470347
C       -5.97908136      -6.46740879      -4.72247203
C       -4.70976660      -6.06989533      -4.09890646
O       -4.38806132      -6.53156597      -3.00609635
H        0.78010071      -1.69633167      -1.99321813
H       -0.61728455      -3.10480534      -3.42718383
H       -4.14840062      -1.64233859      -1.39177769
H       -2.72611164      -0.23492834       0.04540222
H       -2.41530950      -5.21337493      -3.34100643
H       -2.05784763      -4.21376158      -4.78015225
H       -5.01991829      -3.89951134      -8.34575947
H       -6.60028618      -4.58706423      -8.30849285
H       -2.98344165      -4.12481066      -8.99896845
H       -1.17934333      -3.97541990     -10.62293939
H       -2.83033291      -7.29632239     -12.81693198
H       -4.66225082      -7.46566857     -11.18183218
H       -7.86514464      -6.02715934      -7.51399904
H       -9.40236968      -7.41075207      -6.24193935
H       -8.78217760      -8.26405859      -3.99505675
H       -6.58991262      -7.65922115      -3.01745972
C       -0.88107444       0.88107444       0.88107444
C       -1.45532827       0.35282228       2.03637825
C       -2.26685690       1.15535467       2.84645118
C       -2.50589396       2.48798822       2.49196012
C       -1.92530039       3.00705782       1.32350634
C       -1.11038410       2.20728397       0.52100718
C       -3.38309509       3.38663276       3.29362199
O       -3.85710402       4.38150090       2.74401810
C       -3.63696767       3.04230882       4.76222096
N       -4.47966150       4.09631458       5.31246410
C       -5.85015029       3.93564781       5.21608850
O       -6.34101512       2.86353303       4.85147375
N       -6.64600934       5.02192757       5.55950759
C       -8.09403309       4.80086106       5.57915599
C       -8.57255835       4.51522482       7.00426254
O       -8.45707460       5.35380833       7.90073148
C       -9.20392460       3.20501162       7.34908869
C       -9.00234176       2.03454215       6.60986888
C       -9.59687103       0.83204714       7.01123201
C      -10.39399690       0.79594421       8.15152268
Br     -11.19000956      -0.83113526       8.68944947
C      -10.60196082       1.95054464       8.90070893
C      -10.00353150       3.14921524       8.50288649
C       -6.08072975       6.27625367       5.93185658
C       -6.85195863       7.42783436       6.14873008
C       -6.25383706       8.64343089       6.50686293
C       -4.87652286       8.72573747       6.67550668
C       -4.09458693       7.59476501       6.46885076
C       -4.69801973       6.38537166       6.08557079
C       -3.84572774       5.22048396       5.81235669
O       -2.63395535       5.28303768       6.00873060
H       -1.28334881      -0.68527085       2.31137113
H       -2.71258821       0.70734615       3.72933936
H       -2.10694530       4.04171679       1.03385480
H       -0.66752164       2.62677878      -0.37866267
H       -2.68036847       2.99694300       5.29237939
H       -4.14243428       2.07422593       4.83510125
H       -8.37350348       3.99259216       4.89909344
H       -8.63173614       5.67154134       5.19256578
H       -8.36833290       2.00903644       5.72985142
H       -9.41709185      -0.07018317       6.43079394
H      -11.21741534       1.92996449       9.79620745
H      -10.16171257       4.04318034       9.10485864
H       -7.93149910       7.42786672       6.04693720
H       -6.87241327       9.52598400       6.65666383
H       -4.41305907       9.66645104       6.96178284
H       -3.01649478       7.65598380       6.59411491
C        0.88107444      -0.88107444       0.88107444
C        2.24262925      -0.60489712       0.99700244
C        3.05605284      -1.41152460       1.80108532
C        2.50159921      -2.49976888       2.48447420
C        1.12966220      -2.77014633       2.35605603
C        0.31884097      -1.96020146       1.55963282
C        3.31653696      -3.41463887       3.33217401
O        2.87108899      -4.53680378       3.57473024
C        4.65498518      -2.91124793       3.87526434
N        5.21442949      -3.97649912       4.69751157
C        6.01641396      -4.91378568       4.07168697
O        6.39609371      -4.75132912       2.90859907
N        6.38607039      -6.03213206       4.80924205
C        7.33908835      -6.95180661       4.18315519
C        8.76079272      -6.66201231       4.66924069
O        9.07113246      -6.78424329       5.85623866
C        9.82132688      -6.22651964       3.71017841
C        9.54546508      -5.62235481       2.47893290
C       10.58986295      -5.20576086       1.64452638
C       11.91185631      -5.39173044       2.03787704
Br      13.31620575      -4.82357118       0.90854685
C       12.20403786      -5.98779108       3.26138546
C       11.16115339      -6.39808292       4.09639692
C        5.90761168      -6.24662217       6.13460616
C        6.14857064      -7.42763951       6.85231292
C        5.65281977      -7.59964059       8.15167053
C        4.92534639      -6.58673510       8.76568553
C        4.67867412      -5.40685564       8.07267294
C        5.15718129      -5.25071711       6.76106378
C        4.83094320      -4.02102480       6.02660039
O        4.22923153      -3.10817817       6.58831394
H        2.68220469       0.23204730       0.45929170
H        4.11525146      -1.17899832       1.85502394
H        0.68628260      -3.61692269       2.87931161
H       -0.74152919      -2.18329235       1.47387459
H        4.48532570      -2.01058206       4.47378310
H        5.32893913      -2.67778230       3.04504004
H        7.27501351      -6.89638257       3.09379301
H        7.09172108      -7.99264171       4.41148046
H        8.53151223      -5.43315659       2.14255194
H       10.35486612      -4.72572024       0.69711625
H       13.23336760      -6.13077614       3.57944354
H       11.40169153      -6.85031236       5.05774767
H        6.71974796      -8.25015930       6.43639577
H        5.84195160      -8.53026299       8.68284652
H        4.54801505      -6.71640408       9.77687382
H        4.10537190      -4.61430400       8.54691759
