197
Properties=species:S:1:pos:R:3 pbc="F F F"
C        0.00000000       0.00000000       0.00000000
C        0.88180418       0.88180418      -0.88180418
C        0.30091343       1.85266080      -1.69636311
C        1.10375658       2.64262121      -2.53139258
C        2.49267526       2.46065130      -2.55663318
C        3.06355019       1.49230996      -1.71307875
C        2.26312750       0.70283684      -0.87800349
C        3.40251422       3.21273903      -3.47596035
O        4.58513091       2.92997561      -3.59030949
O        2.72171114       4.06746989      -4.32937950
C        2.49668670       5.48578856      -4.29075611
C        1.25365479       5.77940252      -4.88928829
C        0.82044799       7.09109948      -5.02549308
C        1.62127447       8.11887978      -4.55396133
C        2.85626234       7.83016542      -3.95866889
C        3.35650528       6.51278006      -3.83587388
C        4.71905929       6.33156343      -3.28668333
C        4.92349342       5.48917633      -2.17879730
C        6.19924148       5.21915428      -1.66202924
C        7.32005623       5.83125127      -2.20658600
C        7.15160988       6.75660989      -3.22549796
C        5.86842780       7.01464371      -3.73881112
O        5.83920582       8.23634027      -4.47370792
C        5.58160051       8.42203281      -5.82180779
O        5.06280529       7.65182505      -6.60504865
C        6.05382889       9.80459433      -6.13300748
C        7.22296667      10.30821833      -5.53860154
C        7.65992760      11.60491727      -5.81466136
C        6.92929331      12.40298346      -6.68937812
C        5.77195705      11.91060093      -7.30005258
C        5.33679155      10.60549054      -7.02829613
H       -0.77779278       1.99230048      -1.69953917
H        0.61990491       3.37899369      -3.16444291
H        4.14162975       1.32924907      -1.71386936
H        2.72323676      -0.05261609      -0.24484452
H        0.63294583       4.97204153      -5.26947022
H       -0.12999942       7.30530581      -5.50593390
H        1.29987820       9.15127258      -4.66278044
H        3.45075928       8.67047084      -3.60411378
H        4.07452105       5.01722885      -1.69198230
H        6.31080793       4.52332792      -0.83443181
H        8.30936496       5.62659177      -1.80812548
H        8.00962769       7.31311916      -3.59198877
H        7.80919193       9.69289932      -4.85794861
H        8.56620364      11.97821881      -5.34248554
H        5.20709108      12.53606527      -7.98459906
H        4.43682845      10.22791495      -7.50725447
C        7.37371525      13.74486487      -6.96404775
C        7.74591863      14.86869056      -7.19408356
Br       8.34774001      16.68582164      -7.56603202
C       -0.88180418      -0.88180418      -0.88180418
C       -2.20409434      -0.51623169      -1.12961131
C       -3.02664374      -1.33904164      -1.91208499
C       -2.52864088      -2.53433149      -2.44698738
C       -1.18716687      -2.87659342      -2.20517861
C       -0.36407657      -2.05557397      -1.42431729
C       -3.36777423      -3.49750205      -3.22593732
O       -2.95553868      -4.60079304      -3.54908430
O       -4.69466377      -3.10598378      -3.31791298
C       -5.43758500      -2.46715308      -4.36849330
C       -6.45210847      -1.66581202      -3.80442513
C       -7.34801411      -0.97785587      -4.61117057
C       -7.22952263      -1.07637818      -5.98821476
C       -6.22254130      -1.87129424      -6.55126110
C       -5.31402703      -2.62204659      -5.76908560
C       -4.35855553      -3.51022582      -6.46852469
C       -2.97818990      -3.38504827      -6.22822889
C       -2.03163467      -4.24629420      -6.80249613
C       -2.43216699      -5.23748634      -7.68824017
C       -3.77050452      -5.32206622      -8.04114700
C       -4.71059009      -4.45676739      -7.45452516
O       -5.92291312      -4.42180239      -8.20453850
C       -7.18814542      -4.82561552      -7.81168018
O       -7.60058632      -5.03141205      -6.68768062
C       -7.98218527      -4.93726516      -9.07198027
C       -7.39000850      -5.43502162     -10.24475640
C       -8.12373866      -5.52705969     -11.42870788
C       -9.45509915      -5.12316714     -11.44338859
C      -10.06242265      -4.63960489     -10.28058302
C       -9.32744952      -4.55375426      -9.08937445
H       -2.60850853       0.40025100      -0.70578935
H       -4.05525332      -1.03423942      -2.07384876
H       -0.77452317      -3.80175720      -2.60846781
H        0.66678715      -2.34694301      -1.23530932
H       -6.55053805      -1.60006787      -2.72385166
H       -8.13710941      -0.37963464      -4.16449623
H       -7.92994161      -0.55158634      -6.63240327
H       -6.16935115      -1.91835933      -7.63763342
H       -2.61037414      -2.59987589      -5.57348216
H       -0.98009471      -4.13992007      -6.54855288
H       -1.70234105      -5.90503317      -8.13670800
H       -4.07995500      -6.02871467      -8.80606596
H       -6.35139844      -5.76190256     -10.24673886
H       -7.64695160      -5.91249872     -12.32745767
H      -11.10265078      -4.32885871     -10.29624591
H       -9.80566869      -4.17812427      -8.18820491
C      -10.20785792      -5.20664214     -12.66812781
C      -10.83829339      -5.27655245     -13.69384691
Br     -11.85765422      -5.38959150     -15.35234794
C       -0.88180418       0.88180418       0.88180418
C       -2.04738846       0.36083111       1.44171776
C       -2.87654854       1.17573599       2.22548584
C       -2.54312666       2.51805292       2.44878016
C       -1.35342375       3.02081492       1.89470023
C       -0.52382972       2.20804703       1.11209109
C       -3.41655031       3.46522693       3.20943635
O       -3.18256597       4.66285294       3.25999710
O       -4.60697378       2.88771643       3.62387033
C       -5.02728379       2.35560484       4.89034275
C       -5.94238967       1.30380592       4.67615002
C       -6.54080996       0.65112396       5.74510663
C       -6.22029825       1.03708116       7.03673617
C       -5.31138418       2.08123365       7.25247882
C       -4.70912760       2.80152163       6.19451000
C       -3.84605718       3.95426931       6.53697955
C       -2.52640991       4.01185054       6.05320659
C       -1.68713879       5.11244073       6.28084549
C       -2.12463623       6.17953122       7.05372605
C       -3.37722688       6.11177413       7.64471673
C       -4.21146774       5.00589089       7.40452400
O       -5.25369749       4.92144699       8.37410953
C       -6.62058464       5.02729512       8.17756136
O       -7.24378396       4.93725109       7.13864394
C       -7.20385419       5.25358146       9.53399505
C       -6.53755764       6.06273482      10.46949407
C       -7.07116166       6.26489153      11.74345304
C       -8.27611988       5.65945788      12.08607712
C       -8.95822269       4.86351062      11.16087726
C       -8.42582410       4.66610845       9.87864567
H       -2.32709828      -0.67477554       1.26172413
H       -3.78430725       0.74461984       2.63441442
H       -1.07083015       4.06211428       2.05180375
H        0.38429559       2.62117901       0.67858175
H       -6.20144284       1.01123246       3.66178228
H       -7.25881631      -0.14430424       5.56672821
H       -6.68850947       0.54208628       7.88333547
H       -5.09143155       2.34948931       8.28442304
H       -2.12332274       3.18406648       5.47634298
H       -0.69128536       5.13168889       5.84559342
H       -1.47728798       7.03262468       7.23416956
H       -3.69039163       6.89491486       8.32942913
H       -5.59768146       6.54909388      10.21326452
H       -6.53912537       6.89259523      12.45518738
H       -9.89995400       4.39595996      11.43184144
H       -8.96157352       4.04717534       9.16324901
C       -8.81975455       5.85825939      13.40461393
C       -9.27504859       6.02475566      14.50888850
Br     -10.01122054       6.29396604      16.29440709
C        0.88180418      -0.88180418       0.88180418
C        0.54911741      -2.22107304       1.07974690
C        1.33769733      -3.02594968       1.91412336
C        2.46169439      -2.49113877       2.55712659
C        2.79480241      -1.14493866       2.32919783
C        2.00853663      -0.33979147       1.49563974
C        3.30410744      -3.26792574       3.51918042
O        4.18277517      -2.73971854       4.18292230
O        2.82616325      -4.55019409       3.74220319
C        3.22401529      -5.82834846       3.22086762
C        2.09861813      -6.67556369       3.14816379
C        2.22321816      -7.99098726       2.72283513
C        3.47195160      -8.46634295       2.35582103
C        4.59147436      -7.62695413       2.42666816
C        4.51899597      -6.29341072       2.89275253
C        5.78055435      -5.53071265       3.02603905
C        5.92095834      -4.28746520       2.38304351
C        7.06165118      -3.48518674       2.53358708
C        8.13420941      -3.92772789       3.29595620
C        8.08392400      -5.19643528       3.85335846
C        6.93281765      -5.98896011       3.70010487
O        7.20426625      -7.35948268       3.98550509
C        6.68106340      -8.14610213       4.99827558
O        5.69604361      -7.94373164       5.67990373
C        7.57201305      -9.34248995       5.07692770
C        8.95949729      -9.20967434       4.90061490
C        9.79436696     -10.32692403       4.95821524
C        9.24395610     -11.58263800       5.19506078
C        7.86679809     -11.72860332       5.38720916
C        7.02883321     -10.60531807       5.33642694
H       -0.33088034      -2.64432419       0.60060301
H        1.04356264      -4.06006685       2.05971202
H        3.66353235      -0.70315850       2.81805732
H        2.27425472       0.70431568       1.34552615
H        1.12223186      -6.30383416       3.44839156
H        1.35213457      -8.63920535       2.68990036
H        3.58655544      -9.49687811       2.03049767
H        5.55148965      -8.04511474       2.12873952
H        5.12584959      -3.91451935       1.74336326
H        7.10348065      -2.51016342       2.05492360
H        9.02009557      -3.31062925       3.41335740
H        8.95515476      -5.59085863       4.36872223
H        9.40548686      -8.23255936       4.72199366
H       10.86606101     -10.20444637       4.81640061
H        7.44243188     -12.71017010       5.57515342
H        5.95897363     -10.72511063       5.48791361
C       10.10424470     -12.73646101       5.24192216
C       10.82473640     -13.70278779       5.28116857
Br      11.98971054     -15.26525645       5.34462668
