129
Properties=species:S:1:pos:R:3 pbc="F F F"
C        0.00000000       0.00000000       0.00000000
C        0.88184899       0.88184899      -0.88184899
C        0.33475891       1.51261946      -1.99620356
C        1.14226441       2.32033969      -2.79978617
C        2.49824327       2.51053623      -2.48937664
C        3.03609135       1.85830854      -1.36936672
C        2.22915610       1.04738563      -0.56685131
C        3.36038676       3.39008748      -3.36183749
N        3.94250944       2.64880928      -4.47167458
N        3.25704762       2.51204689      -5.62538522
C        4.08739959       1.80805349      -6.40240467
C        5.31842394       1.53399036      -5.76724207
C        5.19871917       2.10542763      -4.52273921
N        6.44396766       0.86540345      -6.20306891
C        6.54179441       0.19817461      -7.41055365
O        5.63452594       0.10254872      -8.22901709
C        7.83776792      -0.41756027      -7.61845588
C        8.27396835      -1.31043331      -8.57863470
C        9.64082239      -1.56367512      -8.31149037
C        9.96210867      -0.80375001      -7.21068693
Br      11.65070830      -0.71511664      -6.42325238
O        8.87362531      -0.11724830      -6.77024383
H       -0.71301626       1.37955937      -2.25243602
H        0.70994961       2.79589436      -3.67948301
H        4.08640305       1.97516866      -1.11195914
H        2.65936765       0.54948733       0.29807069
H        4.18129899       3.82938966      -2.78298101
H        2.78081335       4.22198618      -3.77945956
H        3.76406245       1.54080038      -7.40086942
H        5.87075731       2.15991561      -3.67879317
H        7.24701052       0.83102524      -5.58708071
H        7.66440508      -1.72372547      -9.37231822
H       10.30740756      -2.21402961      -8.86085484
C       -0.88184899      -0.88184899      -0.88184899
C       -0.42260205      -1.28932153      -2.13165835
C       -1.22953432      -2.09751708      -2.93533888
C       -2.49550572      -2.51140596      -2.49124446
C       -2.94750245      -2.08224989      -1.23401427
C       -2.14167048      -1.27085635      -0.43086621
C       -3.35696215      -3.38939566      -3.36595393
N       -4.17427839      -2.60660803      -4.28210688
N       -3.67827277      -2.23574683      -5.48046012
C       -4.68855458      -1.56485394      -6.04444922
C       -5.84314515      -1.54476119      -5.23175002
C       -5.48219571      -2.24157687      -4.10311343
N       -7.09160274      -0.99148859      -5.42934869
C       -7.43758893      -0.20201098      -6.51092276
O       -6.67184879       0.11841730      -7.41266026
C       -8.81528639       0.24772707      -6.47110421
C       -9.48685213       1.18155502      -7.23687262
C      -10.82369384       1.20718725      -6.77213106
C      -10.89311451       0.28120446      -5.75713555
Br     -12.43182723      -0.13751494      -4.78950186
O       -9.67824370      -0.29540405      -5.55297309
H        0.55503821      -0.98117185      -2.49284549
H       -0.86930647      -2.39712338      -3.91889713
H       -3.92944970      -2.37497752      -0.86910364
H       -2.50462026      -0.94719608       0.54103206
H       -4.02928605      -4.00624342      -2.75814019
H       -2.74407915      -4.07506315      -3.96311679
H       -4.54268545      -1.13521703      -7.02782978
H       -6.01825187      -2.49189057      -3.19932365
H       -7.79903266      -1.14490667      -4.72117713
H       -9.04899486       1.76960585      -8.03360881
H      -11.63475153       1.82040683      -7.13988809
C       -0.88184899       0.88184899       0.88184899
C       -2.03620055       1.45391038       0.35347100
C       -2.84229579       2.25794248       1.16215201
C       -2.50533119       2.48711753       2.50570741
C       -1.33256773       1.91232348       3.01887540
C       -0.52396171       1.11034058       2.20909074
C       -3.38682407       3.35341124       3.37207642
N       -3.03212214       4.76183841       3.26903275
N       -3.57294075       5.52470196       2.29683702
C       -3.04633489       6.73421874       2.51730412
C       -2.20779585       6.75867919       3.65318133
C       -2.23160997       5.46843317       4.12684287
N       -1.49121595       7.78163817       4.23958591
C       -1.37503750       9.05733187       3.71815331
O       -1.87668737       9.42673682       2.66266756
C       -0.56438493       9.93666997       4.53760863
C       -0.05730320      11.19749706       4.28736948
C        0.65095985      11.59174588       5.44785162
C        0.52692865      10.55381270       6.34216154
Br       1.23874637      10.53145285       8.06613756
O       -0.19308265       9.53695587       5.79658232
H       -2.31534478       1.28721953      -0.68358518
H       -3.73420176       2.71557613       0.73554910
H       -1.03814370       2.08351774       4.05186941
H        0.38078987       0.67090564       2.62066852
H       -3.30575760       3.06203855       4.42587351
H       -4.44155423       3.25013876       3.09056610
H       -3.30994895       7.54560707       1.85017623
H       -1.74903075       4.99249336       4.96794198
H       -0.98777408       7.58206023       5.09528216
H       -0.18984581      11.75465236       3.36849966
H        1.17814873      12.52159682       5.61078470
C        0.88184899      -0.88184899       0.88184899
C        2.09325078      -1.36064546       0.38968570
C        2.89909131      -2.16482983       1.19846914
C        2.50428252      -2.48719392       2.50667970
C        1.27518314      -2.00579814       2.98278533
C        0.46701415      -1.20372863       2.17265026
C        3.38572536      -3.35267956       3.37390682
N        3.11714161      -4.76998088       3.17587081
N        3.75136270      -5.44672875       2.19638828
C        3.28287245      -6.69317868       2.32180662
C        2.38754630      -6.82652648       3.40558358
C        2.31311023      -5.56566250       3.94811327
N        1.69956422      -7.91780191       3.89507389
C        1.68364689      -9.16639629       3.30047949
O        2.26104974      -9.44826647       2.25677554
C        0.88131092     -10.13267427       4.02467834
C        0.46034021     -11.40265382       3.67917571
C       -0.28553652     -11.89909742       4.77507675
C       -0.26829176     -10.90818135       5.72915601
Br      -1.07135524     -11.02128930       7.40890997
O        0.42127402      -9.82511171       5.28023511
H        2.41756202      -1.12097536      -0.61955824
H        3.83694064      -2.54931885       0.79906749
H        0.93610979      -2.25054524       3.98687582
H       -0.48181117      -0.83722125       2.55537421
H        3.23212958      -3.12603196       4.43550812
H        4.44647578      -3.17745208       3.15833122
H        3.62716415      -7.45034752       1.62822059
H        1.76016194      -5.16445383       4.78485033
H        1.14064309      -7.79405781       4.73041557
H        0.67305447     -11.89914794       2.74079542
H       -0.76732651     -12.86351023       4.85804908
