137
Properties=species:S:1:pos:R:3 pbc="F F F"
C        0.00000000       0.00000000       0.00000000
C        0.88184899       0.88184899      -0.88184899
C        0.33475891       1.51261946      -1.99620356
C        1.14226441       2.32033969      -2.79978617
C        2.49824327       2.51053623      -2.48937664
C        3.03609135       1.85830854      -1.36936672
C        2.22915610       1.04738563      -0.56685131
C        3.36038676       3.39008748      -3.36183749
N        3.94250944       2.64880928      -4.47167458
N        3.25704762       2.51204689      -5.62538522
C        4.08739959       1.80805349      -6.40240467
C        5.31842394       1.53399036      -5.76724207
C        5.19871917       2.10542763      -4.52273921
N        6.44396766       0.86540345      -6.20306891
C        6.54179441       0.19817461      -7.41055365
O        5.63452594       0.10254872      -8.22901709
C        7.83776792      -0.41756027      -7.61845588
C        8.27396835      -1.31043331      -8.57863470
C        9.64082239      -1.56367512      -8.31149037
C        9.96210867      -0.80375001      -7.21068693
O        8.87362531      -0.11724830      -6.77024383
H       -0.71301626       1.37955937      -2.25243602
H        0.70994961       2.79589436      -3.67948301
H        4.08640305       1.97516866      -1.11195914
H        2.65936765       0.54948733       0.29807069
H        4.18129899       3.82938966      -2.78298101
H        2.78081335       4.22198618      -3.77945956
H        3.76406245       1.54080038      -7.40086942
H        5.87075731       2.15991561      -3.67879317
H        7.24701052       0.83102524      -5.58708071
H        7.66440508      -1.72372547      -9.37231822
H       10.30740756      -2.21402961      -8.86085484
C       11.26570951      -0.73532495      -6.60278656
C       12.35747521      -0.67801896      -6.09366999
Br      14.12276802      -0.58536003      -5.27047157
C       -0.88184899      -0.88184899      -0.88184899
C       -0.68890180      -0.89384875      -2.26083139
C       -1.49473573      -1.70263456      -3.06501999
C       -2.49117246      -2.51138622      -2.49559745
C       -2.67975752      -2.47854136      -1.10546773
C       -1.87575013      -1.66691227      -0.30073064
C       -3.35270052      -3.38576278      -3.37384844
N       -4.52067313      -2.67200123      -3.87031895
N       -4.43781940      -1.94994946      -5.00671087
C       -5.67412383      -1.46334436      -5.16038956
C       -6.55813741      -1.90833612      -4.15318283
C       -5.78358332      -2.70220906      -3.34109362
N       -7.90062058      -1.66888685      -3.94293260
C       -8.66768775      -0.79320002      -4.68963490
O       -8.24309703      -0.10921303      -5.61378169
C      -10.04972574      -0.73320587      -4.25573191
C      -11.07182303       0.13035999      -4.60070669
C      -12.21913107      -0.28588534      -3.88362124
C      -11.83383933      -1.38447571      -3.15073056
O      -10.51663273      -1.65598862      -3.35399950
H        0.07820200      -0.27642419      -2.72075695
H       -1.34828965      -1.69249633      -4.14454101
H       -3.45309776      -3.08327397      -0.63715912
H       -2.03267144      -1.65267179       0.77455894
H       -3.70493789      -4.26576934      -2.82296243
H       -2.78922135      -3.75328765      -4.23975009
H       -5.87820459      -0.82009423      -6.00743343
H       -6.00499362      -3.26095040      -2.44352206
H       -8.35418111      -2.14074634      -3.17018903
H      -10.98404674       0.96086379      -5.28981487
H      -13.20479524       0.15796023      -3.90739778
C      -12.69654526      -2.14896662      -2.28765923
C      -13.41906148      -2.78922777      -1.56483700
Br     -14.58730910      -3.82447588      -0.39609458
C       -0.88184899       0.88184899       0.88184899
C       -2.26794586       0.78491219       0.79072389
C       -3.07234726       1.59043977       1.59960325
C       -2.49698330       2.49016611       2.51100673
C       -1.09862347       2.58334043       2.58180271
C       -0.29335957       1.77977779       1.77025569
C       -3.37605200       3.35202201       3.38423773
N       -3.74469022       4.59562364       2.72267944
N       -4.83108483       4.63912898       1.92426592
C       -4.86984568       5.91214158       1.51587049
C       -3.84069395       6.69315437       2.08580804
C       -3.13786597       5.81402337       2.87499666
N       -3.52746688       8.03048257       1.95449058
C       -4.16000121       8.90293159       1.08758987
O       -5.05997928       8.58901507       0.31709739
C       -3.63404766      10.25241225       1.15220362
C       -3.85094241      11.35000306       0.34122426
C       -3.09147742      12.41516232       0.88199791
C       -2.46337597      11.90922383       1.99644579
O       -2.77024034      10.59448729       2.16189321
H       -2.73270850       0.09342255       0.09284809
H       -4.15578013       1.52040327       1.50914358
H       -0.62422765       3.28128022       3.26802299
H        0.78823774       1.86212115       1.83690089
H       -2.86597698       3.60713214       4.32056055
H       -4.30021598       2.82743612       3.65460699
H       -5.65503346       6.21602961       0.83466919
H       -2.26884016       5.93567328       3.50495265
H       -2.76156654       8.39755882       2.50599111
H       -4.48486177      11.36454839      -0.53641234
H       -3.02019487      13.42685807       0.50717985
C       -1.60131268      12.65827980       2.87357864
C       -0.87933467      13.28561416       3.60817741
Br       0.28804270      14.29996078       4.79596149
C        0.88184899      -0.88184899       0.88184899
C        1.82083856      -1.72681260       0.29593078
C        2.62771543      -2.53050917       1.10416568
C        2.50817443      -2.48757635       2.50240535
C        1.54896250      -1.63894788       3.07585623
C        0.73913432      -0.83695688       2.26730184
C        3.38925020      -3.35660524       3.36645630
N        2.81137379      -4.67672262       3.57489689
N        3.04494144      -5.66383503       2.68570325
C        2.38880274      -6.71031995       3.19873506
C        1.77556425      -6.40947843       4.43461369
C        2.08089665      -5.08792642       4.65806294
N        1.02938998      -7.18460331       5.29844674
C        0.62789533      -8.48260316       5.04002418
O        0.86830499      -9.09301980       4.00476696
C       -0.14568723      -9.06566677       6.11868398
C       -0.87573488     -10.23725869       6.18064593
C       -1.41428826     -10.31551949       7.48740641
C       -0.97400865      -9.19314538       8.14990886
O       -0.21805245      -8.41834918       7.32632412
H        1.93006448      -1.77330823      -0.78439358
H        3.34752409      -3.20135337       0.63644952
H        1.42346951      -1.59468578       4.15537556
H        0.00135589      -0.18376374       2.72566466
H        3.54531023      -2.89827067       4.35008876
H        4.37895510      -3.48975440       2.91354959
H        2.40075648      -7.64800443       2.65697134
H        1.83650826      -4.41010675       5.46285107
H        0.72525815      -6.76931959       6.17053872
H       -0.99789262     -10.94258715       5.36830329
H       -2.03877717     -11.09892504       7.89408492
C       -1.26482036      -8.87427415       9.52371732
C       -1.50837516      -8.60721950      10.67428191
Br      -1.90218268      -8.17541471      12.53464753
