161
Properties=species:S:1:pos:R:3 pbc="F F F"
C        0.00000000       0.00000000       0.00000000
C        0.88192638       0.88192638      -0.88192638
C        2.19347074       1.14925314      -0.50090037
C        2.99952622       1.95044723      -1.31203702
C        2.49963676       2.49951591      -2.50292763
C        1.17595246       2.21782169      -2.87248610
C        0.36961792       1.41084690      -2.06461383
C        3.38279316       3.34696735      -3.39036986
C        3.87774957       4.62982191      -2.73145810
O        4.54968460       4.60915927      -1.70162525
N        3.53539749       5.77625179      -3.42925453
C        3.91428596       7.04924179      -3.04493921
C        4.61002873       7.51458530      -1.90747195
N        4.77952115       8.84085656      -1.91905815
N        4.22553240       9.22096088      -3.08846036
C        3.65804854       8.18348309      -3.77983638
C        4.24545336      10.62538571      -3.47864291
C        5.42312473      10.94687321      -4.36919071
C        6.73708485      10.82120806      -3.88760774
C        7.82875469      11.13197003      -4.70099448
C        7.61351853      11.57853584      -6.00180788
C        6.31784447      11.71564138      -6.49571816
C        5.22567939      11.40168488      -5.68150093
H        2.59982214       0.74260854       0.42124654
H        4.02402973       2.15071063      -1.00101708
H        0.75971881       2.61607995      -3.79522321
H       -0.65254208       1.19932642      -2.36685684
H        2.85421986       3.58334889      -4.32182769
H        4.26311514       2.76292559      -3.68660594
H        3.01298345       5.70198360      -4.29188435
H        4.99454741       6.94855713      -1.06836960
H        3.16049902       8.34497848      -4.72482159
H        4.27705283      11.23479660      -2.56820458
H        3.29382115      10.83168097      -3.98183540
H        6.91757116      10.47188888      -2.87053275
H        8.83613756      11.02180792      -4.30872199
H        6.14837365      12.06840897      -7.51005111
H        4.22105531      11.51979577      -6.08329856
C        8.73732212      11.90351004      -6.84148477
C        9.67850762      12.17567593      -7.54471416
Br      11.20032498      12.61574515      -8.68177660
C       -0.88192638      -0.88192638      -0.88192638
C       -0.38688792      -1.36864426      -2.08809207
C       -1.19282914      -2.17983580      -2.88934554
C       -2.50165955      -2.50195604      -2.49846471
C       -2.98344582      -2.00430486      -1.27850957
C       -2.17568357      -1.19711835      -0.47227673
C       -3.36283203      -3.39995765      -3.35734068
C       -3.66485133      -2.83371809      -4.74046015
O       -2.76782874      -2.55749220      -5.53514818
N       -5.01934709      -2.71647891      -5.00507781
C       -5.52891357      -2.26939589      -6.21015750
C       -4.89165557      -1.77220000      -7.36823041
N       -5.76119317      -1.44753817      -8.33070452
N       -6.95724935      -1.77635295      -7.80135133
C       -6.87007075      -2.23702714      -6.51427011
C       -8.17300583      -1.59214779      -8.58432835
C       -8.57394360      -2.85577887      -9.30946618
C       -7.74157052      -3.40512984     -10.29920030
C       -8.11429754      -4.56384159     -10.98358007
C       -9.32781319      -5.17839215     -10.68765692
C      -10.16991720      -4.64547772      -9.71380908
C       -9.79461097      -3.48693646      -9.02731777
H        0.62016942      -1.12539056      -2.41596300
H       -0.79164005      -2.55360928      -3.83050811
H       -3.98836032      -2.24443135      -0.93823031
H       -2.56267894      -0.82251115       0.47154891
H       -4.29859108      -3.62806248      -2.83274288
H       -2.85514288      -4.36288788      -3.49461591
H       -5.69386160      -3.00419601      -4.30879380
H       -3.83463741      -1.62550144      -7.55133529
H       -7.75230675      -2.51926917      -5.95872316
H       -8.00176651      -0.77913767      -9.29914983
H       -8.95452444      -1.26286750      -7.88994559
H       -6.78858304      -2.93248875     -10.53892100
H       -7.45181021      -4.97364673     -11.74121054
H      -11.11987343      -5.12212374      -9.48483657
H      -10.46778253      -3.08284969      -8.27351742
C       -9.71652202      -6.37115220     -11.39464270
C      -10.04206566      -7.37008875     -11.98674330
Br     -10.56844219      -8.98528465     -12.94411989
C       -0.88192638       0.88192638       0.88192638
C       -0.40283467       1.33231902       2.10847056
C       -1.20856415       2.14360704       2.90983928
C       -2.50158447       2.50202328       2.49847255
C       -2.96736351       2.04070762       1.25818912
C       -2.15962207       1.23348859       0.45196799
C       -3.36193073       3.40005659       3.35814304
C       -3.70555409       2.81141099       4.72206449
O       -2.83188645       2.49922418       5.52935848
N       -5.06760788       2.71782672       4.95546921
C       -5.61233517       2.25651000       6.13962178
C       -5.01080346       1.72138634       7.29989617
N       -5.90752942       1.39530733       8.23659911
N       -7.08470220       1.76090579       7.68934565
C       -6.96011742       2.24663725       6.41461334
C       -8.32066012       1.58646450       8.44235735
C       -8.71038828       2.84286592       9.18593445
C       -7.88813134       3.35315994      10.20460938
C       -8.25099623       4.50494153      10.90578144
C       -9.44462351       5.15159892      10.59763982
C      -10.27660257       4.65760858       9.59499286
C       -9.91111056       3.50598636       8.89176828
H        0.59157063       1.06056404       2.45219073
H       -0.81995171       2.48871761       3.86708812
H       -3.95942555       2.30955234       0.90204409
H       -2.53400746       0.88729505      -0.50766132
H       -4.28115117       3.65928251       2.81896277
H       -2.83712145       4.34871578       3.52680945
H       -5.72074633       3.03463023       4.25147483
H       -3.96130472       1.54811937       7.50205005
H       -7.82403057       2.55947533       5.84679318
H       -8.18204605       0.75505882       9.14294914
H       -9.09380766       1.28881640       7.72471346
H       -6.95070999       2.85514590      10.45413690
H       -7.59649021       4.88430848      11.68586878
H      -11.21114114       5.15933373       9.35635885
H      -10.57625786       3.13248459       8.11540719
C       -9.82323189       6.33728090      11.32180414
C      -10.14031641       7.33028955      11.92829175
Br     -10.65301526       8.93590055      12.90893092
C        0.88192638      -0.88192638       0.88192638
C        2.11152930      -1.32668041       0.40541454
C        2.91861564      -2.12742832       1.21596651
C        2.50000723      -2.49919420       2.50287888
C        1.25855628      -2.04003079       2.96767318
C        0.45211702      -1.23321386       2.15974777
C        3.38713531      -3.34661103       3.38638402
C        3.67901868      -4.73420541       2.82580548
O        4.23349636      -4.88807080       1.73890195
N        3.30387749      -5.76244022       3.67458610
C        3.51183874      -7.10067555       3.39595266
C        4.03043340      -7.74845125       2.25320133
N        4.06917393      -9.07771384       2.39254810
N        3.61129451      -9.27855641       3.64510271
C        3.22712028      -8.12259576       4.27165198
C        3.53566493     -10.63166727       4.18214978
C        4.76608845     -10.99059556       4.98250464
C        6.02569799     -11.05674060       4.36346207
C        7.16369451     -11.40326166       5.09476304
C        7.04870093     -11.69386184       6.45129949
C        5.80740008     -11.63981609       7.08198784
C        4.66913673     -11.29016259       6.34956587
H        2.45291603      -1.05922698      -0.59095887
H        3.87849265      -2.46769403       0.82957076
H        0.90828165      -2.29805377       3.96468656
H       -0.50529327      -0.88292967       2.53600478
H        2.94257523      -3.43141011       4.38541111
H        4.34754634      -2.83573494       3.52936540
H        2.88840213      -5.54737566       4.57107360
H        4.37491726      -7.31280722       1.32374966
H        2.82207312      -8.13537125       5.27285471
H        3.40789563     -11.32729717       3.34486120
H        2.62890591     -10.68264193       4.79578968
H        6.12769082     -10.83069820       3.30160377
H        8.12825216     -11.44256828       4.59584703
H        5.71566635     -11.87073911       8.14042827
H        3.70756578     -11.25808447       6.85849940
C        8.21995353     -12.05536249       7.20700090
C        9.20087759     -12.35811929       7.83990083
Br      10.78694882     -12.84765143       8.86324648
