174
Properties=species:S:1:pos:R:3 pbc="F F F"
C        1.79183041       1.79183041      -1.79183041
C        3.10337477       2.05915716      -1.41080439
C        3.90943024       2.86035125      -2.22194105
C        3.40954078       3.40941993      -3.41283165
C        2.08585648       3.12772572      -3.78239013
C        1.27952195       2.32075092      -2.97451786
C        4.29269718       4.25687137      -4.30027388
C        4.78765359       5.53972593      -3.64136212
O        5.45958863       5.51906329      -2.61152927
N        4.44530151       6.68615581      -4.33915856
C        4.82418998       7.95914581      -3.95484324
C        5.51993275       8.42448933      -2.81737597
N        5.68942517       9.75076059      -2.82896218
N        5.13543642      10.13086490      -3.99836438
C        4.56795256       9.09338712      -4.68974040
C        5.15535738      11.53528973      -4.38854693
C        6.33302876      11.85677723      -5.27909473
C        7.64698888      11.73111208      -4.79751177
C        8.73865872      12.04187405      -5.61089851
C        8.52342255      12.48843987      -6.91171191
Br       9.99836885      12.91495522      -8.01375351
C        7.22774849      12.62554540      -7.40562218
C        6.13558341      12.31158890      -6.59140496
H        3.50972617       1.65251256      -0.48865749
H        4.93393376       3.06061465      -1.91092110
H        1.66962284       3.52598397      -4.70512723
H        0.25736195       2.10923044      -3.27676086
H        3.76412388       4.49325292      -5.23173172
H        5.17301917       3.67282961      -4.59650997
H        3.92288748       6.61188763      -5.20178837
H        5.90445143       7.85846116      -1.97827363
H        4.07040304       9.25488250      -5.63472561
H        5.18695685      12.14470062      -3.47810860
H        4.20372518      11.74158499      -4.89173942
H        7.82747518      11.38179290      -3.78043677
H        9.74604159      11.93171194      -5.21862601
H        7.05827768      12.97831300      -8.41995513
H        5.13095934      12.42969979      -6.99320259
C       -1.79183041      -1.79183041      -1.79183041
C       -1.23202668      -2.47222583      -2.86908381
C       -2.03911328      -3.28277764      -3.66983162
C       -3.41194533      -3.41146781      -3.40837924
C       -3.95883683      -2.72004287      -2.31709262
C       -3.15097906      -1.91303458      -1.51077709
C       -4.27784252      -4.30869939      -4.26330053
C       -4.35734779      -3.88542992      -5.72596393
O       -3.35271630      -3.80653916      -6.43092573
N       -5.65090523      -3.65534476      -6.16436589
C       -5.96893916      -3.30554590      -7.46369396
C       -5.15443113      -3.02468708      -8.58267983
N       -5.86876939      -2.72723883      -9.67313972
N       -7.14612820      -2.85790774      -9.26062977
C       -7.25537719      -3.16544348      -7.93025941
C       -8.23856488      -2.63976349     -10.20086568
C       -8.70927240      -3.93129847     -10.82832985
C       -7.84766307      -4.68369014     -11.64425952
C       -8.28219446      -5.86980328     -12.23943354
C       -9.58624875      -6.30888098     -12.02844461
Br     -10.17947001      -7.91103363     -12.83657394
C      -10.45773793      -5.57358459     -11.22759356
C      -10.02091092      -4.38766213     -10.63000422
H       -0.17334896      -2.38103782      -3.09650944
H       -1.58685678      -3.80937030      -4.50924243
H       -5.01636290      -2.80686913      -2.07750201
H       -3.58941789      -1.38683154      -0.66710383
H       -5.28561899      -4.36874554      -3.83474399
H       -3.87910031      -5.33041577      -4.23284267
H       -6.42674288      -3.78161121      -5.52820938
H       -4.07385900      -3.01657862      -8.65074860
H       -8.22027288      -3.28093539      -7.45880289
H       -7.89344408      -1.94299945     -10.97332255
H       -9.04478489      -2.14590896      -9.64635575
H       -6.82399356      -4.34960769     -11.81610361
H       -7.59636201      -6.43791601     -12.86210152
H      -11.47774028      -5.91325293     -11.06555259
H      -10.71756574      -3.82450091     -10.01179507
C       -1.79183041       1.79183041       1.79183041
C       -1.22163635       2.51982027       2.83187969
C       -2.02900892       3.33018069       3.63253293
C       -3.41203407       3.41136222       3.40839608
C       -3.96940422       2.67230790       2.35426020
C       -3.16152718       1.86534472       1.54791882
C       -4.27917945       4.30824065       4.26242233
C       -4.30381553       3.92651551       5.73841060
O       -3.27735308       3.89764527       6.41518284
N       -5.57676872       3.67232033       6.22152683
C       -5.84662712       3.35226265       7.53928925
C       -4.99217083       3.12841621       8.64121102
N       -5.66557828       2.84301651       9.76055315
N       -6.95763126       2.92444093       9.38259352
C       -7.11432869       3.18901556       8.04773583
C       -8.01550589       2.70289812      10.36079004
C       -8.50608667       3.99838764      10.96442642
C       -7.64402928       4.79925603      11.73232742
C       -8.09626352       5.98949867      12.30566908
C       -9.41833922       6.38428643      12.12094869
Br     -10.03534634       7.99196056      12.89977067
C      -10.29034086       5.60066164      11.36791357
C       -9.83588836       4.41060398      10.79208492
H       -0.15459264       2.46602923       3.03027434
H       -1.56856347       3.89432596       4.44258009
H       -5.03551876       2.72141259       2.14380269
H       -3.60830144       1.30186090       0.73319091
H       -5.30024561       4.32640748       3.86245543
H       -3.91202802       5.33968405       4.19064668
H       -6.37405591       3.75717486       5.60533270
H       -3.91032077       3.15352868       8.67733677
H       -8.09543726       3.26254314       7.60203076
H       -7.62767407       2.03965460      11.14243741
H       -8.82236033       2.16971403       9.84497524
H       -6.60634835       4.50011653      11.88323997
H       -7.40993311       6.59542812      12.89101831
H      -11.32424085       5.90577947      11.22652548
H      -10.53305032       3.80944194      10.21136945
C        1.79183041      -1.79183041       1.79183041
C        3.14652352      -1.92471062       1.50210218
C        3.95178242      -2.72635999       2.31358013
C        3.40927744      -3.40969524       3.41281969
C        2.04220682      -3.26251805       3.69124745
C        1.23593722      -2.45541912       2.88343439
C        4.28912551      -4.25773491       4.30298201
C        4.93860782      -5.43924297       3.59089085
O        5.68373149      -5.28109450       2.62535519
N        4.64040166      -6.66282191       4.16739231
C        5.15261066      -7.86636830       3.71920006
C        5.97021411      -8.18027458       2.61130935
N        6.24835695      -9.48589872       2.53489227
N        5.63966098     -10.00373220       3.62127252
C        4.93609075      -9.07430514       4.34068419
C        5.74658229     -11.43009808       3.90251368
C        6.87492751     -11.73316610       4.86080712
C        8.20697615     -11.46701941       4.50161717
C        9.25491899     -11.75961296       5.37689932
C        8.97821777     -12.32837101       6.61698555
Br      10.39440225     -12.73055327       7.80212206
C        7.66434269     -12.60550525       6.98906814
C        6.61570523     -12.30970663       6.11316540
H        3.58729380      -1.41249622       0.65110619
H        5.01030748      -2.82054022       2.07462182
H        1.59087314      -3.76721005       4.54265086
H        0.17947693      -2.34914203       3.11473430
H        3.71200322      -4.61096911       5.16613619
H        5.09224079      -3.63443095       4.71568701
H        4.04878138      -6.70119805       4.98658405
H        6.36960605      -7.51831426       1.85326591
H        4.38250375      -9.35187798       5.22562943
H        5.89888019     -11.95719080       2.95369509
H        4.77958346     -11.75027245       4.30719368
H        8.43542835     -11.02122331       3.53305320
H       10.27679145     -11.53991302       5.07967506
H        7.44733349     -13.05365100       7.95556131
H        5.59650379     -12.53788626       6.41947166
C       -0.00445707       0.01189536      -1.78238275
H       -0.66409135       0.67374010      -2.43557963
H        0.65740317      -0.63156657      -2.45157240
C       -0.90989263      -0.90692880      -0.91072765
C        0.90977584       0.90977584      -0.90977584
C       -0.00465871       1.77757030       0.00794375
H       -0.66225468       2.44313916      -0.64384735
H        0.64322798       2.43503045       0.67728295
C       -1.78241447       0.00034974      -0.00472694
H       -2.45427497      -0.65498947       0.64260836
H       -2.43311707       0.67328779      -0.65473579
C       -0.91132561       0.90220522       0.91563759
C       -0.01476271      -0.02253852       1.78660255
H       -0.67934791      -0.69751639       2.42135241
H        0.63392994       0.61504881       2.47327442
C        0.01484550      -1.77751727      -0.01636693
H        0.67870853      -2.42144646      -0.68295456
H       -0.62264859      -2.45592969       0.64226336
C        1.78714474       0.01002794       0.00389507
H        2.44202412       0.67113390       0.66197326
H        2.45385902      -0.65136977      -0.64189061
C        0.91606151      -0.90478549       0.90901405
