138
Properties=species:S:1:pos:R:3 pbc="F F F"
C        1.77718047       1.77718047      -1.77718047
C        2.31744432       2.98545588      -1.40136339
C        3.03980699       3.45822995      -2.52219386
C        2.89918771       2.50865805      -3.51785663
O        2.13178030       1.47224594      -3.05523803
C        3.40369578       2.49163108      -4.87861059
O        4.01234197       3.44873446      -5.34415184
N        3.14112195       1.31814464      -5.55540506
C        3.43582549       0.98831173      -6.90226328
C        3.95823949       1.91332760      -7.80987152
C        4.20683370       1.53912152      -9.12543394
C        3.93747314       0.23630088      -9.53920597
C        3.41314117      -0.72081799      -8.63614678
C        3.12251960      -2.06136409      -8.97680319
C        2.61530790      -2.94346842      -8.03129564
C        2.40188270      -2.46639995      -6.75748315
N        2.65647285      -1.19496938      -6.38207817
C        3.15703931      -0.33182943      -7.29880112
H        2.20174069       3.47231706      -0.44290712
H        3.59687916       4.38179692      -2.61310618
H        2.70235373       0.56358512      -5.02788641
H        4.17051056       2.93938746      -7.52731184
H        4.60786950       2.27599317      -9.81774197
H        3.29136445      -2.43562466      -9.98334807
H        2.39542909      -3.97384904      -8.28703798
H        2.00914688      -3.11193941      -5.97684336
C        4.21842398      -0.06871201     -10.91820335
C        4.45372031      -0.32416031     -12.07311365
Br       4.83417457      -0.73719860     -13.94050593
C       -1.77718047      -1.77718047      -1.77718047
C       -2.17002182      -1.47382225      -3.06041951
C       -2.98428797      -2.54948173      -3.48646111
C       -3.03983590      -3.44872737      -2.43713913
O       -2.28978357      -2.97757866      -1.39190203
C       -3.75185855      -4.70748691      -2.31459199
O       -4.50296041      -5.10301052      -3.19925734
N       -3.48729737      -5.38525818      -1.14211610
C       -4.04806237      -6.60134591      -0.67699221
C       -5.09582040      -7.25074503      -1.33487318
C       -5.62136003      -8.43018745      -0.81984168
C       -5.09902843      -8.96829596       0.35434441
C       -4.03312683      -8.33142084       1.03607772
C       -3.44439339      -8.81860067       2.22503537
C       -2.39582630      -8.13917190       2.83186308
C       -1.95565927      -6.97680411       2.23949748
N       -2.48677326      -6.46548634       1.10867795
C       -3.50583621      -7.12736577       0.50919098
H       -1.91057781      -0.58601508      -3.62037198
H       -3.48435367      -2.66841300      -4.43901559
H       -2.77628918      -4.99154678      -0.52598930
H       -5.53553092      -6.85639777      -2.24528116
H       -6.44093238      -8.91678275      -1.34388950
H       -3.79397698      -9.73631159       2.69120071
H       -1.93814877      -8.51179346       3.74132420
H       -1.13735627      -6.40533264       2.66863807
C       -5.70226214     -10.18888976       0.82323659
C       -6.20747037     -11.21113707       1.21593379
Br      -7.02434935     -12.86402450       1.85089194
C       -1.77718047       1.77718047       1.77718047
C       -1.78108790       1.77013618       3.15303950
C       -2.75305550       2.71935035       3.54782495
C       -3.28553003       3.25222629       2.38794607
O       -2.67796969       2.67970456       1.30159001
C       -4.33228701       4.24015606       2.20149437
O       -4.95428408       4.69651789       3.15442629
N       -4.52980293       4.60061503       0.88425370
C       -5.49731829       5.48488030       0.34420191
C       -6.51724290       6.05042425       1.11377146
C       -7.45231152       6.89399999       0.52507765
C       -7.36989793       7.17923631      -0.83615425
C       -6.34170664       6.62260647      -1.63584315
C       -6.18607295       6.87045173      -3.01856598
C       -5.14587781       6.29139787      -3.73414056
C       -4.27867840       5.46708899      -3.05280148
N       -4.38623873       5.19277462      -1.73543170
C       -5.39549973       5.75974375      -1.03123248
H       -1.16719547       1.15421050       3.79555891
H       -3.04776809       2.99064846       4.55336571
H       -3.88765479       4.21293059       0.19323987
H       -6.62004183       5.84313233       2.17403569
H       -8.24204513       7.31905816       1.14050134
H       -6.87234313       7.52123991      -3.55449519
H       -5.01995794       6.48253858      -4.79387849
H       -3.44566899       4.98916007      -3.56077823
C       -8.37919594       8.05745731      -1.36873794
C       -9.22448303       8.79296740      -1.81477678
Br     -10.59124076       9.98222501      -2.53598386
C        1.77718047      -1.77718047       1.77718047
C        1.63503685      -3.13687534       1.93235139
C        2.64138597      -3.53546596       2.84337887
C        3.34105495      -2.39409127       3.19055618
O        2.81534085      -1.31679353       2.52712989
C        4.45117076      -2.21465180       4.10811488
O        4.87672260      -3.14584219       4.78266347
N        4.95914591      -0.93177111       4.12375463
C        5.99290426      -0.39905075       4.93444549
C        6.58807946      -1.12161128       5.97174787
C        7.58283439      -0.53952323       6.74903154
C        7.99009999       0.76751356       6.49039356
C        7.40580527       1.51807432       5.44073901
C        7.77019059       2.84324419       5.11101230
C        7.15411216       3.51187977       4.06090273
C        6.17671233       2.84273710       3.35899067
N        5.78732533       1.58036682       3.63662314
C        6.38918571       0.92125655       4.65608184
H        0.89530210      -3.76546718       1.45619559
H        2.84288066      -4.53068985       3.21821175
H        4.57350195      -0.26914582       3.45117749
H        6.28980278      -2.13748658       6.20992049
H        8.02905034      -1.11692820       7.55562609
H        8.54182510       3.36972573       5.66698848
H        7.43383095       4.52672376       3.80151084
H        5.66287515       3.31538954       2.52656523
C        9.02171779       1.29762701       7.34382454
C        9.88569769       1.74159703       8.05857299
Br      11.28268013       2.45945900       9.21426077
C       -0.00445707       0.01189536      -1.78238275
H       -0.66409135       0.67374010      -2.43557963
H        0.65740317      -0.63156657      -2.45157240
C       -0.90989263      -0.90692880      -0.91072765
C        0.90977584       0.90977584      -0.90977584
C       -0.00465871       1.77757030       0.00794375
H       -0.66225468       2.44313916      -0.64384735
H        0.64322798       2.43503045       0.67728295
C       -1.78241447       0.00034974      -0.00472694
H       -2.45427497      -0.65498947       0.64260836
H       -2.43311707       0.67328779      -0.65473579
C       -0.91132561       0.90220522       0.91563759
C       -0.01476271      -0.02253852       1.78660255
H       -0.67934791      -0.69751639       2.42135241
H        0.63392994       0.61504881       2.47327442
C        0.01484550      -1.77751727      -0.01636693
H        0.67870853      -2.42144646      -0.68295456
H       -0.62264859      -2.45592969       0.64226336
C        1.78714474       0.01002794       0.00389507
H        2.44202412       0.67113390       0.66197326
H        2.45385902      -0.65136977      -0.64189061
C        0.91606151      -0.90478549       0.90901405
