141
Properties=species:S:1:pos:R:3 pbc="F F F"
C        0.00000000       0.00000000       0.00000000
C        0.86697696       0.86697696      -0.86697696
C        0.56752810       1.27774455      -2.17094020
N        1.53049974       2.05385651      -2.68054961
N        2.45182797       2.11203084      -1.68887080
C        3.66115922       2.90763108      -1.86177549
C        4.81849109       2.07897978      -2.36849560
C        5.99087525       1.95123827      -1.60923417
C        7.07559101       1.21781336      -2.09842830
C        6.99901769       0.59276890      -3.34825446
C        5.83813694       0.72437931      -4.11808817
C        4.75769169       1.46333221      -3.62943304
C        8.18524377      -0.15903790      -3.84547208
O        9.30144495       0.24123108      -3.53880778
N        7.89155470      -1.28397126      -4.59051872
C        8.80460700      -2.13947633      -5.24469607
C       10.17363185      -1.89378954      -5.35379900
C       10.99934020      -2.79733912      -6.03541285
C       10.45646377      -3.94772329      -6.60796128
Br      11.57980646      -5.16096018      -7.52284696
C        9.09379149      -4.20601494      -6.51268729
C        8.28411883      -3.29884951      -5.83680769
F        6.96673179      -3.54691781      -5.75039917
C        2.08348083       1.41920356      -0.56735304
H       -0.30359895       1.05609331      -2.77365528
H        3.88756826       3.36041641      -0.88930612
H        3.43894374       3.72177993      -2.56121670
H        6.07883277       2.43017212      -0.63579294
H        7.98502220       1.13804892      -1.50506485
H        5.76845077       0.29145488      -5.11252559
H        3.86405173       1.56648602      -4.24559742
H        6.92474934      -1.59097298      -4.62475115
H       10.62951493      -1.00459673      -4.92829984
H       12.06385950      -2.58814264      -6.11221455
H        8.65107916      -5.09361322      -6.95173854
H        2.70583507       1.38021300       0.31482299
C       -0.86697696      -0.86697696      -0.86697696
C       -0.41762151      -1.70347534      -1.89511601
N       -1.42713018      -2.35820462      -2.47957106
N       -2.52260745      -1.90958769      -1.82053447
C       -3.84232715      -2.42672489      -2.16151375
C       -4.55536700      -1.54797622      -3.16262326
C       -5.77609382      -0.93946532      -2.83578855
C       -6.45404270      -0.16020806      -3.77758191
C       -5.91548937       0.03059235      -5.05514403
C       -4.70420433      -0.58206195      -5.39433814
C       -4.03174070      -1.36564618      -4.45307007
C       -6.68033905       0.84738403      -6.03872294
O       -7.90407398       0.81871782      -5.99612763
N       -5.90534398       1.60322959      -6.89598777
C       -6.35054363       2.40799189      -7.96727499
C       -7.66918655       2.45599867      -8.42045341
C       -8.01287742       3.27749572      -9.50203224
C       -7.03798370       4.05213886     -10.13085693
Br      -7.51312148       5.15859869     -11.58717046
C       -5.71836902       4.01314314      -9.69523795
C       -5.38933942       3.19019783      -8.62293543
F       -4.11278298       3.14928125      -8.20671142
C       -2.22739215      -1.01612239      -0.82652289
H        0.59229468      -1.87339396      -2.24505035
H       -4.40616145      -2.50647378      -1.22465556
H       -3.72081980      -3.44021176      -2.56090881
H       -6.21947692      -1.07437402      -1.85094690
H       -7.40771390       0.29519846      -3.51562051
H       -4.28673122      -0.49196953      -6.39373049
H       -3.09454217      -1.84597865      -4.73561435
H       -4.90933232       1.66007335      -6.70926853
H       -8.45253708       1.86033179      -7.96101276
H       -9.04543268       3.30036984      -9.84286855
H       -4.94465926       4.60626575     -10.17081097
H       -2.99191755      -0.57728924      -0.20201830
C       -0.86697696       0.86697696       0.86697696
C       -1.51564364       2.03898664       0.46158257
N       -2.22418296       2.58400655       1.45671634
N       -1.99887125       1.75191085       2.50194751
C       -2.63969849       2.00393683       3.78693046
C       -1.75187736       2.79529021       4.71879891
C       -1.34731872       2.25549909       5.94852988
C       -0.55974117       3.00526881       6.82682269
C       -0.15649381       4.30055968       6.48298756
C       -0.56494214       4.85198271       5.26367957
C       -1.35742998       4.10266295       4.39036401
C        0.66160922       5.07672892       7.45655825
O        0.47056590       4.89882305       8.65322665
N        1.60400755       5.91205938       6.89005033
C        2.46152653       6.81265520       7.55869807
C        2.39033575       7.10238361       8.92159344
C        3.27861522       8.02254096       9.49348819
C        4.23926198       8.65323239       8.70273136
Br       5.43404092       9.89074161       9.48499255
C        4.32145831       8.37974872       7.34217342
C        3.43091851       7.46724281       6.78575271
F        3.50787853       7.20819841       5.46989327
C       -1.19409474       0.69113295       2.18480973
H       -1.51274082       2.52086700      -0.50745818
H       -2.89793809       1.02703746       4.21231524
H       -3.57677152       2.54203459       3.60313427
H       -1.64982264       1.25219846       6.24277673
H       -0.26412627       2.57961711       7.78439258
H       -0.30826807       5.87244409       4.99171907
H       -1.67737540       4.54992713       3.44883264
H        1.76724694       5.83445587       5.89131858
H        1.65004062       6.63730153       9.56595714
H        3.20677232       8.23749794      10.55720578
H        5.05984385       8.85995016       6.70909818
H       -0.93176461      -0.06791752       2.90737799
C        0.86697696      -0.86697696       0.86697696
C        1.48290254      -2.06033964       0.47297067
N        2.20077850      -2.59956285       1.46456451
N        2.01444006      -1.74171841       2.49657115
C        2.67668795      -1.98072471       3.77315313
C        1.79252200      -2.73410979       4.73933469
C        1.42488549      -2.16092210       5.96554010
C        0.64065181      -2.87593296       6.87524791
C        0.20387643      -4.16928070       6.56688392
C        0.57538067      -4.75396325       5.35126050
C        1.36461735      -4.03940290       4.44643670
C       -0.60941893      -4.90809147       7.57300541
O       -0.38980724      -4.70975803       8.76153301
N       -1.58035248      -5.73496651       7.04348814
C       -2.44196635      -6.60356875       7.74822433
C       -2.34825467      -6.86676201       9.11513395
C       -3.24303827      -7.75625515       9.72419705
C       -4.23270983      -8.38278782       8.96662378
Br      -5.43596171      -9.57878541       9.79886954
C       -4.33770603      -8.13555450       7.60261537
C       -3.44049632      -7.25344001       7.00913332
F       -3.53961992      -7.01983422       5.68999885
C        1.22509480      -0.67106795       2.17387468
H        1.44988540      -2.56178968      -0.48552545
H        2.96370430      -1.00093243       4.17265406
H        3.59850386      -2.54193778       3.58149874
H        1.75394711      -1.15834935       6.23250138
H        0.37388825      -2.42468380       7.82956391
H        0.29224375      -5.77419096       5.10599652
H        1.65559378      -4.51243542       3.50810596
H       -1.76280524      -5.67442915       6.04690360
H       -1.58528987      -6.40415956       9.73434836
H       -3.15339645      -7.95084688      10.79048097
H       -5.09883565      -8.61307868       6.99496146
H        0.99351541       0.10793113       2.88564081
