170
Properties=species:S:1:pos:R:3 pbc="F F F"
C        1.77688098       1.77688098      -1.77688098
C        1.47743213       2.18764858      -3.08084422
N        2.44040377       2.96376053      -3.59045363
N        3.36173200       3.02193487      -2.59877482
C        4.57106324       3.81753510      -2.77167951
C        5.72839512       2.98888381      -3.27839963
C        6.90077927       2.86114230      -2.51913820
C        7.98549504       2.12771738      -3.00833233
C        7.90892172       1.50267292      -4.25815848
C        6.74804096       1.63428334      -5.02799219
C        5.66759571       2.37323624      -4.53933706
C        9.09514780       0.75086612      -4.75537611
O       10.21134897       1.15113510      -4.44871180
N        8.80145872      -0.37406724      -5.50042275
C        9.71451102      -1.22957230      -6.15460009
C       11.08353587      -0.98388552      -6.26370302
C       11.90924422      -1.88743510      -6.94531688
C       11.36636779      -3.03781926      -7.51786531
C       10.00369551      -3.29611092      -7.42259131
C        9.19402285      -2.38894549      -6.74671172
F        7.87663582      -2.63701379      -6.66030320
C        2.99338485       2.32910758      -1.47725706
H        0.60630507       1.96599733      -3.68355930
H        4.79747228       4.27032043      -1.79921015
H        4.34884776       4.63168396      -3.47112073
H        6.98873680       3.34007615      -1.54569697
H        8.89492622       2.04795294      -2.41496887
H        6.67835479       1.20135890      -6.02242961
H        4.77395575       2.47639004      -5.15550144
H        7.83465336      -0.68106896      -5.53465517
H       11.53941895      -0.09469270      -5.83820386
H       12.97376352      -1.67823862      -7.02211857
H        9.56098318      -4.18370920      -7.86164257
H        3.61573909       2.29011703      -0.59508104
C       12.22239672      -3.96235092      -8.21504224
C       12.93932096      -4.73664618      -8.79892792
Br      14.09852681      -5.98861614      -9.74302168
C       -1.77688098      -1.77688098      -1.77688098
C       -1.33584439      -2.56143115      -2.84864939
N       -2.34244335      -3.23108692      -3.42108766
N       -3.42862711      -2.84417879      -2.70963579
C       -4.74115761      -3.39566882      -3.02345143
C       -5.51866689      -2.50901392      -3.96799774
C       -6.74713519      -1.95549659      -3.57842798
C       -7.48410734      -1.16899711      -4.46844029
C       -6.99783027      -0.91582956      -5.75609329
C       -5.77908752      -1.47339717      -6.15783181
C       -5.04746495      -2.26439419      -5.26830987
C       -7.82435442      -0.09348462      -6.68355099
O       -9.04413132      -0.16678673      -6.60027782
N       -7.10635122       0.71806044      -7.53952345
C       -7.61629806       1.54267103      -8.56591179
C       -8.95099258       1.55950851      -8.97186929
C       -9.36048735       2.40476961     -10.01140827
C       -8.43540016       3.23435713     -10.64537080
C       -7.10066255       3.22715311     -10.25666647
C       -6.70608956       2.38024414      -9.22594366
F       -5.41497769       2.37026249      -8.85521002
C       -3.12913936      -1.97527097      -1.69533916
H       -0.33370863      -2.68354228      -3.23861079
H       -5.26850547      -3.52719019      -2.07130720
H       -4.59933184      -4.39001880      -3.46230181
H       -7.15060102      -2.13949410      -2.58441479
H       -8.44291080      -0.75675530      -4.15818192
H       -5.40048561      -1.33458059      -7.16707710
H       -4.10499098      -2.70141156      -5.59944470
H       -6.10688558       0.80364190      -7.38499589
H       -9.69685447       0.92122365      -8.50729930
H      -10.40461451       2.40277625     -10.31580521
H       -6.36491275       3.86310657     -10.73711038
H       -3.88565621      -1.58526901      -1.03001193
C       -8.86498903       4.10157087     -11.71166988
C       -9.22476971       4.82786238     -12.60469536
Br      -9.80650464       6.00221432     -14.04864203
C       -1.77688098       1.77688098       1.77688098
C       -2.49927607       2.89689374       1.34975511
N       -3.18674538       3.45609858       2.35177397
N       -2.87372249       2.68662540       3.42209379
C       -3.46616648       2.97058101       4.72353037
C       -2.57561489       3.84595736       5.57410630
C       -2.08935285       3.38528238       6.80642453
C       -1.29928115       4.21197232       7.61029127
C       -0.97521459       5.50635176       7.18818678
C       -1.46543914       5.97895651       5.96592084
C       -2.26020295       5.15272968       5.16723639
C       -0.15157539       6.36538166       8.08443298
O       -0.27856430       6.23679353       9.29583804
N        0.72238193       7.21488712       7.43530904
C        1.56532156       8.18517492       8.01968545
C        1.54301339       8.53671133       9.36965544
C        2.41125085       9.52326621       9.85511064
C        3.30296892      10.15861247       8.99077028
C        3.33558227       9.82390370       7.64185447
C        2.46543236       8.84562552       7.17159593
F        2.49418095       8.52723866       5.86686751
C       -2.03416735       1.64993364       3.11564850
H       -2.56419737       3.33110311       0.36056123
H       -3.65715099       2.00448870       5.20536317
H       -4.43556143       3.45551069       4.56058032
H       -2.32926273       2.38448697       7.16076021
H       -0.93974526       3.84704600       8.57105678
H       -1.27105958       6.99584100       5.63524272
H       -2.64431974       5.53887463       4.22265288
H        0.84305657       7.09680064       6.43449550
H        0.85643583       8.06968297      10.06968298
H        2.37813497       9.78573926      10.91003919
H        4.02004464      10.30647436       6.95248684
H       -1.70257439       0.93948545       3.85887732
C        4.19335468      11.17017579       9.49826694
C        4.93905276      12.01736006       9.92329540
Br       6.14478348      13.38718538      10.61053046
C        1.77688098      -1.77688098       1.77688098
C        2.37240976      -2.98301997       1.39049519
N        3.09609611      -3.51878412       2.37973770
N        2.93404382      -2.64552267       3.40287519
C        3.60961644      -2.87676908       4.67389233
C        2.72846702      -3.60630249       5.66090905
C        2.38402559      -3.01283551       6.88419866
C        1.60255202      -3.70601081       7.81298193
C        1.14538436      -4.99743728       7.52693149
C        1.49368298      -5.60231230       6.31432122
C        2.28021604      -4.90958977       5.39036321
C        0.33579520      -5.71280464       8.55279019
O        0.57324152      -5.50219138       9.73576297
N       -0.65235260      -6.53375810       8.04640873
C       -1.51579715      -7.38211290       8.77322306
C       -1.40780938      -7.62905169      10.14211106
C       -2.30591952      -8.49908507      10.77396046
C       -3.31319297      -9.12239375      10.03721306
C       -3.43262937      -8.89122963       8.67157564
C       -2.53198641      -8.02840643       8.05536907
F       -2.64514555      -7.81037149       6.73469928
C        2.15430784      -1.56897118       3.07647048
H        2.32063369      -3.49617706       0.43905096
H        3.91423005      -1.89575168       5.05702113
H        4.52165403      -3.45223239       4.47776603
H        2.72925688      -2.01127334       7.13397969
H        1.35390296      -3.23922966       8.76471542
H        1.19442393      -6.62184285       6.08587653
H        2.55300272      -5.39825955       4.45458497
H       -0.84686902      -6.48357659       7.05153201
H       -0.63108075      -7.16848297      10.74552790
H       -2.20500750      -8.68121248      11.84143850
H       -4.20756405      -9.36659398       8.07988663
H        1.94188311      -0.77803948       3.78101457
C       -4.23339319     -10.01371887      10.69476236
C       -5.00406087     -10.76020367      11.24545990
Br      -6.25016533     -11.96720644      12.13589124
C       -0.00445707       0.01189536      -1.78238275
H       -0.66409135       0.67374010      -2.43557963
H        0.65740317      -0.63156657      -2.45157240
C       -0.90989263      -0.90692880      -0.91072765
C        0.90977584       0.90977584      -0.90977584
C       -0.00465871       1.77757030       0.00794375
H       -0.66225468       2.44313916      -0.64384735
H        0.64322798       2.43503045       0.67728295
C       -1.78241447       0.00034974      -0.00472694
H       -2.45427497      -0.65498947       0.64260836
H       -2.43311707       0.67328779      -0.65473579
C       -0.91132561       0.90220522       0.91563759
C       -0.01476271      -0.02253852       1.78660255
H       -0.67934791      -0.69751639       2.42135241
H        0.63392994       0.61504881       2.47327442
C        0.01484550      -1.77751727      -0.01636693
H        0.67870853      -2.42144646      -0.68295456
H       -0.62264859      -2.45592969       0.64226336
C        1.78714474       0.01002794       0.00389507
H        2.44202412       0.67113390       0.66197326
H        2.45385902      -0.65136977      -0.64189061
C        0.91606151      -0.90478549       0.90901405
