145
Properties=species:S:1:pos:R:3 pbc="F F F"
C        0.00000000       0.00000000       0.00000000
C        0.87760679       0.87760679      -0.87760679
C        1.08717460       0.56561494      -2.21252607
C        1.90770560       1.39025527      -2.98445918
C        2.49707083       2.50127564      -2.39270512
N        2.29145531       2.82644927      -1.09599518
C        1.49149138       2.00889549      -0.36813179
N        3.34363691       3.39229782      -3.05384856
C        3.81640631       3.31426917      -4.34272846
O        3.60692662       2.39660728      -5.12728414
C        4.68190837       4.45015697      -4.79036762
C        4.61175967       5.72772336      -4.22168141
C        5.42743692       6.75957458      -4.70319546
C        6.32339493       6.54090562      -5.76259979
C        6.36332035       5.26622722      -6.34614765
C        5.55865169       4.23122277      -5.85959970
C        7.12015166       7.70698318      -6.30826336
N        8.43042532       7.33398506      -6.83153686
N        8.60566413       7.18027821      -8.16520067
C        9.90425951       6.87994154      -8.28159707
C       10.54516438       6.86318727      -7.03842538
C        9.58261105       7.16581905      -6.11222639
H        0.62664994      -0.30849727      -2.66423239
H        2.06415838       1.14158073      -4.02730327
H        1.36151753       2.30535507       0.66972166
H        3.66686541       4.11984983      -2.43384870
H        3.90383002       5.96001830      -3.43148162
H        5.33760101       7.74859861      -4.25564113
H        7.00958623       5.06180502      -7.19979385
H        5.60987403       3.25243089      -6.33432768
H        7.30693076       8.44885433      -5.52208423
H        6.56091583       8.19575480      -7.11420559
H       10.31489034       6.69403970      -9.26401691
H        9.60978035       7.26886993      -5.03694349
C       11.94054115       6.58517202      -6.81654435
C       13.10916920       6.35233425      -6.63071898
Br      14.99874191       5.97585527      -6.33025508
C       -0.87760679      -0.87760679      -0.87760679
C       -1.20179472      -2.17010947      -0.49341142
C       -2.00225015      -2.94947179      -1.33069811
C       -2.45016272      -2.41006405      -2.53082481
N       -2.15403928      -1.14684770      -2.91301279
C       -1.37441898      -0.41145589      -2.08264380
N       -3.24376981      -3.09080563      -3.45520785
C       -3.65791688      -4.40137945      -3.41410762
O       -3.34639383      -5.22369754      -2.56072666
C       -4.54387935      -4.84144698      -4.53710663
C       -5.34020659      -3.95211055      -5.26884730
C       -6.17220292      -4.42758552      -6.29041851
C       -6.23145000      -5.79662515      -6.59882518
C       -5.45385381      -6.68270707      -5.83913434
C       -4.61349182      -6.20936788      -4.82661446
C       -7.21041023      -6.27486205      -7.65012592
N       -6.75823257      -7.45035261      -8.38736206
N       -7.22226922      -8.67714319      -8.05173061
C       -6.63698747      -9.49069177      -8.93811888
C       -5.82850688      -8.78388322      -9.83438693
C       -5.92275123      -7.46660309      -9.47130217
H       -0.84173914      -2.58463596       0.44399004
H       -2.25365243      -3.95717864      -1.02221132
H       -1.15662774       0.59389964      -2.43442284
H       -3.44396163      -2.51633702      -4.26026529
H       -5.36490123      -2.89079402      -5.03963468
H       -6.79595134      -3.71596043      -6.82992898
H       -5.50141528      -7.75791129      -6.01185853
H       -4.02299880      -6.92157062      -4.25206319
H       -7.38365145      -5.49369279      -8.40052509
H       -8.17080545      -6.51844589      -7.18162487
H       -6.83353020     -10.55233758      -8.88707917
H       -5.48025938      -6.56512414      -9.87021024
C       -5.06890408      -9.35947921     -10.91387423
C       -4.43273673      -9.84154086     -11.81794484
Br      -3.40410793     -10.62099376     -13.27975057
C       -0.87760679       0.87760679       0.87760679
C       -1.83638733       0.31928536       1.70964292
C       -2.63035104       1.15835331       2.49371570
C       -2.44146864       2.53321039       2.41637256
N       -1.50155685       3.09204764       1.62029527
C       -0.74462064       2.25545435       0.86844367
N       -3.17762452       3.47335748       3.13880129
C       -4.24795921       3.25220572       3.97323901
O       -4.77804659       2.16789502       4.18487643
C       -4.81115324       4.46376927       4.64751045
C       -4.05815318       5.62063033       4.88238093
C       -4.63209243       6.71300990       5.54510462
C       -5.96336534       6.67238501       5.99114998
C       -6.69918458       5.49742765       5.77908299
C       -6.13236100       4.40985148       5.10726168
C       -6.51345768       7.84136294       6.78057757
N       -7.94343255       8.06215467       6.59036001
N       -8.82455071       7.61208010       7.51451221
C      -10.01079763       8.01237807       7.04262242
C       -9.87848248       8.72311288       5.84518168
C       -8.53721315       8.75391915       5.56952418
H       -1.98029764      -0.75639945       1.75848688
H       -3.37514066       0.71448582       3.14341591
H       -0.00843777       2.74947504       0.23923813
H       -2.88320780       4.41413071       2.92322544
H       -3.01193983       5.68526448       4.59812562
H       -4.01714142       7.59240749       5.73229184
H       -7.72066444       5.40291807       6.14760259
H       -6.72756313       3.50995695       4.95911252
H       -6.01974533       8.77476771       6.48335629
H       -6.33488315       7.68538416       7.85060890
H      -10.90629546       7.76955185       7.59709964
H       -7.96714790       9.18783213       4.76061373
C      -10.95863767       9.29778841       5.08583144
C      -11.86326764       9.77907918       4.44987561
Br     -13.32597780      10.55728564       3.42158882
C        0.87760679      -0.87760679       0.87760679
C        1.44270351      -2.04233625       0.38027586
C        2.23508976      -2.82774210       1.21958819
C        2.43341958      -2.42317464       2.53445737
N        1.90053812      -1.28312519       3.03023645
C        1.13434638      -0.53909523       2.19507706
N        3.19259102      -3.12615344       3.47103883
C        3.80332213      -4.34899179       3.32109003
O        3.73597032      -5.06551160       2.32933612
C        4.59010480      -4.83431351       4.49801465
C        5.13814684      -3.96970263       5.45331497
C        5.89083614      -4.48136868       6.51800213
C        6.11677301      -5.86150861       6.64861871
C        5.59026704      -6.71620422       5.66922396
C        4.82851568      -6.20911198       4.61184650
C        7.00991395      -6.36103357       7.76445068
N        6.64889076      -7.68434811       8.26270837
N        7.33455516      -8.77367387       7.84291399
C        6.76835365      -9.78273875       8.51470571
C        5.75061073      -9.33355307       9.36261323
C        5.69011182      -7.97554535       9.19499931
H        1.27676699      -2.35302477      -0.64740670
H        2.67552516      -3.73464520       0.82287202
H        0.72148344       0.36334070       2.63900820
H        3.19502368      -2.65971686       4.36582340
H        5.03086929      -2.89197383       5.37248681
H        6.32225465      -3.78429259       7.23529350
H        5.77788212      -7.78940415       5.70389884
H        4.43437838      -6.89703128       3.86522294
H        6.96166516      -5.68736107       8.62884310
H        8.04949096      -6.40163248       7.41975277
H        7.12933026     -10.78892781       8.35468888
H        5.06676733      -7.21165999       9.63716644
C        4.95195422     -10.16194426      10.22835904
C        4.28307939     -10.85572188      10.95342116
Br       3.20156536     -11.97750161      12.12578528
