141
Properties=species:S:1:pos:R:3 pbc="F F F"
C        0.00000000       0.00000000       0.00000000
C        0.86703602       0.86703602      -0.86703602
C        0.80731164       2.26302304      -0.94960848
N        1.69932603       2.74809951      -1.82137671
N        2.33603751       1.64192751      -2.27419610
C        3.36329144       1.75837915      -3.29984902
C        4.74066930       1.89089573      -2.69784700
C        5.51421216       0.75602680      -2.41535373
C        6.78755047       0.88829188      -1.85380883
C        7.30394332       2.15573847      -1.55740175
C        6.54058732       3.29315738      -1.85064771
C        5.26390050       3.15862507      -2.40456977
C        8.66908482       2.24413670      -0.95447068
O        9.47510734       1.35475819      -1.19683583
N        8.87702139       3.33721402      -0.13630215
C       10.06047331       3.71088410       0.54393544
C       11.25689806       2.99465345       0.45858870
C       12.39063142       3.41903542       1.16243068
C       12.33492861       4.56563531       1.95150964
Br      13.86943587       5.12949462       2.89962455
C       11.15733936       5.29925711       2.04612330
C       10.02858036       4.87068397       1.34482641
Cl       8.58117818       5.81509427       1.48104930
C        1.85362974       0.48042640      -1.73336709
H        0.15610151       2.94996451      -0.42508746
H        3.11929389       2.62531287      -3.92536564
H        3.29940506       0.87134212      -3.94071446
H        5.13567908      -0.24141550      -2.62993017
H        7.37678810      -0.00288431      -1.64353677
H        6.92405491       4.29521239      -1.67990330
H        4.67653114       4.05324556      -2.61024287
H        8.08291491       3.93629482       0.06115291
H       11.34313284       2.09667464      -0.14609048
H       13.30980309       2.84264772       1.08458047
H       11.11360460       6.19594902       2.65789089
H        2.24682932      -0.48807398      -2.00601027
C       -0.86703602      -0.86703602      -0.86703602
C       -1.90507796      -0.42137750      -1.69348771
N       -2.50274214      -1.43478325      -2.33127686
N       -1.81645534      -2.52421233      -1.91149345
C       -2.21293178      -3.85338724      -2.35520060
C       -1.46024529      -4.27634469      -3.59282206
C       -0.23705090      -4.95465560      -3.49388618
C        0.45525071      -5.33895126      -4.64595064
C       -0.05920644      -5.04347561      -5.91440148
C       -1.28767021      -4.37828360      -6.01843859
C       -1.97462990      -3.98732432      -4.86514112
C        0.72050924      -5.47262212      -7.11557931
O        1.44819041      -6.45298570      -7.02190608
N        0.55858572      -4.67659448      -8.23252880
C        1.13018374      -4.84086426      -9.51674145
C        1.96872763      -5.90541164      -9.85627879
C        2.50385765      -6.00460517     -11.14648863
C        2.19855878      -5.04181687     -12.10579620
Br       2.92723742      -5.18271780     -13.84382556
C        1.36019957      -3.97715484     -11.79351790
C        0.83125454      -3.88078595     -10.50490651
Cl      -0.21593374      -2.54419834     -10.15509108
C       -0.82704158      -2.22734806      -1.01303359
H       -2.26034153       0.58744568      -1.85825762
H       -3.29466125      -3.84098113      -2.53433002
H       -2.03184243      -4.55064923      -1.52896997
H        0.18906165      -5.19212667      -2.52112873
H        1.40231683      -5.86792872      -4.55182866
H       -1.74343899      -4.17274880      -6.98298281
H       -2.92050668      -3.45521917      -4.96429372
H        0.00678800      -3.83150769      -8.13333712
H        2.23053389      -6.67756368      -9.13886817
H        3.15827478      -6.83964601     -11.38649912
H        1.11796870      -3.22778428     -12.54184715
H       -0.20141835      -2.99023563      -0.57311164
C       -0.86703602       0.86703602       0.86703602
C       -0.42647013       1.93160802       1.66186502
N       -1.43488057       2.50324912       2.33067256
N       -2.52068538       1.79808171       1.93339403
C       -3.83068636       2.09467159       2.49616166
C       -4.58898760       3.08895816       1.65146628
C       -5.41961706       2.65926711       0.60670851
C       -6.11505205       3.58784548      -0.17324634
C       -5.98425775       4.96020994       0.07261584
C       -5.16648050       5.39378104       1.12413086
C       -4.46518660       4.46405293       1.89785581
C       -6.74599897       5.91314601      -0.79145279
O       -7.79319719       5.53363983      -1.30013565
N       -6.15652362       7.15110348      -0.95708954
C       -6.64428100       8.26471372      -1.68157275
C       -7.87112122       8.27163419      -2.34979261
C       -8.29117361       9.40801802      -3.05195548
C       -7.48818779      10.54580774      -3.08494124
Br      -8.06231642      12.07402833      -4.03703882
C       -6.26634087      10.56531244      -2.42118014
C       -5.85029223       9.42888622      -1.72474054
Cl      -4.32506225       9.49334226      -0.90318136
C       -2.21998970       0.78870822       1.05872530
H        0.57691900       2.31518025       1.79289222
H       -3.68302454       2.47178660       3.51516126
H       -4.38148380       1.15057529       2.57940255
H       -5.53540382       1.59924025       0.38954968
H       -6.75858718       3.23756737      -0.97871399
H       -5.07551031       6.44637407       1.37728621
H       -3.81974008       4.81947795       2.70080155
H       -5.23210963       7.28964623      -0.56369905
H       -8.52743455       7.40636629      -2.34790288
H       -9.24809412       9.38853291      -3.56875668
H       -5.64094092      11.45336807      -2.44264626
H       -2.97581849       0.12631228       0.66263485
C        0.86703602      -0.86703602       0.86703602
C        1.04739079      -0.72479068       2.24776170
N        1.89174047      -1.64119367       2.73586812
N        2.22754588      -2.37579114       1.64882410
C        3.19164319      -3.46058594       1.76929048
C        2.51400385      -4.78296786       2.03244033
C        2.10705560      -5.60592427       0.97261282
C        1.47626771      -6.82746413       1.22591934
C        1.23411780      -7.24138079       2.54158495
C        1.65130011      -6.42913285       3.60395944
C        2.27455661      -5.20388714       3.34865159
C        0.55334586      -8.55430858       2.76003774
O        0.68353817      -9.42954280       1.91362039
N       -0.20058586      -8.63686434       3.91425908
C       -0.92755019      -9.74560172       4.40937045
C       -0.96670876     -10.98798826       3.77168331
C       -1.71060144     -12.04241544       4.31542215
C       -2.41526390     -11.86104309       5.50327510
Br      -3.41831938     -13.28918320       6.22844211
C       -2.38534912     -10.63568397       6.16013831
C       -1.64458874      -9.58630304       5.61272362
Cl      -1.62477913      -8.07613604       6.46386625
C        1.64106695      -1.93241769       0.49393858
H        0.61277309       0.00255444       2.92093482
H        3.88851331      -3.20504393       2.57641515
H        3.77384258      -3.49643597       0.84118309
H        2.27725065      -5.30665411      -0.05971101
H        1.16936748      -7.45636426       0.39170881
H        1.52474821      -6.73598703       4.63843535
H        2.57699219      -4.57631839       4.18670899
H       -0.30643692      -7.79490485       4.46958887
H       -0.43078162     -11.17156111       2.84511847
H       -1.73022345     -12.99938213       3.79871166
H       -2.93111122     -10.49403087       7.08874308
H        1.82218879      -2.40365727      -0.46108044
