194
Properties=species:S:1:pos:R:3 pbc="F F F"
C        1.79137258       1.79137258      -1.79137258
C        1.32173361       3.03297356      -2.21980898
C        2.12758654       3.85121259      -3.02189085
C        3.40343770       3.42892967      -3.39709491
N        4.28666023       4.18230928      -4.20101322
C        4.12970764       5.48944386      -4.61685765
O        3.22632896       6.25224369      -4.29068958
C        5.20815252       6.00761025      -5.50529904
C        5.56347532       7.35711758      -5.41329956
C        6.55959406       7.87742662      -6.23992397
C        7.19358547       7.05775289      -7.17609922
C        6.83278815       5.70834462      -7.30202384
C        5.84102062       5.18904181      -6.44923542
C        7.50194807       4.82421447      -8.33058542
N        6.53885054       4.27424054      -9.28108161
N        5.94827848       3.09065303      -8.99291256
C        5.07479575       2.90432776      -9.99060377
C        4.18295909       1.71951021      -9.98566422
C        5.16399056       3.94331580     -10.93735103
C        6.12264243       4.81564953     -10.47555308
C        6.64483292       6.08957355     -11.02660118
C        3.84511613       2.17088250      -2.96379674
F        5.06798955       1.74397994      -3.31948278
C        3.05667986       1.35112756      -2.16240646
H        0.32987028       3.37918957      -1.93799688
H        1.72598763       4.80739153      -3.34413222
H        5.16106452       3.71518666      -4.41893463
H        5.06381740       8.00525581      -4.69557042
H        6.83499199       8.92650001      -6.15820242
H        7.96220458       7.48884126      -7.81481946
H        5.53655076       4.14947155      -6.56186912
H        8.00652971       3.98535905      -7.83673158
H        8.26119268       5.36891565      -8.90124248
H        3.13732038       2.02436877     -10.09656705
H        4.26653469       1.15914259      -9.04830262
H        4.43855536       1.04415505     -10.80783951
H        7.73656405       6.06367532     -11.10177462
H        6.35815722       6.93131332     -10.38873008
H        6.25553887       6.28423740     -12.03044217
H        3.44106982       0.38914827      -1.84112688
C        4.37717016       4.04306728     -12.13925091
C        3.71820808       4.12660916     -13.14584205
Br       2.65272213       4.26168929     -14.77341480
C       -1.79137258      -1.79137258      -1.79137258
C       -3.10111157      -2.07158856      -1.40181603
C       -3.91891745      -2.87267476      -2.20909778
C       -3.42816614      -3.39503505      -3.40626109
N       -4.17536908      -4.21028366      -4.28432999
C       -5.52316294      -4.50078420      -4.21206201
O       -6.32550190      -4.03253154      -3.41122879
C       -6.02840277      -5.43697301      -5.25568604
C       -7.33009938      -5.26614152      -5.73765156
C       -7.83869693      -6.13337597      -6.70487176
C       -7.05719631      -7.18746030      -7.18278097
C       -5.75911017      -7.39146015      -6.69258629
C       -5.24879194      -6.49856748      -5.73193843
C       -4.91906176      -8.54573729      -7.19194890
N       -4.53856291      -9.44770359      -6.10790618
N       -3.38670276      -9.20628928      -5.43885202
C       -3.36396827     -10.13311401      -4.47264500
C       -2.26133706     -10.14573343      -3.48106302
C       -4.47316000     -10.99489654      -4.57660085
C       -5.21803805     -10.55090573      -5.64490126
C       -6.48891731     -11.03958880      -6.23250154
C       -2.10397764      -3.10883186      -3.76698588
F       -1.61126099      -3.60742485      -4.91276643
C       -1.28328971      -2.31012811      -2.97679607
H       -3.50131183      -1.67381893      -0.47192597
H       -4.93017624      -3.07722648      -1.87010866
H       -3.65911920      -4.54404519      -5.09202142
H       -7.94994805      -4.45515858      -5.35953698
H       -8.84975114      -5.99037497      -7.07956830
H       -7.47910533      -7.85506115      -7.93169883
H       -4.25236077      -6.66884088      -5.32668978
H       -4.00025424      -8.17045037      -7.65791574
H       -5.44836679      -9.13554810      -7.94743592
H       -2.66035359     -10.13629792      -2.46160470
H       -1.61373314      -9.26927836      -3.59096839
H       -1.64407283     -11.04061714      -3.60585995
H       -6.37973625     -11.21479703      -7.30748071
H       -7.29050723     -10.31106624      -6.07662714
H       -6.80483498     -11.98468634      -5.78069711
H       -0.26778361      -2.10545848      -3.29810288
C       -4.74560518     -12.10856064      -3.70532254
C       -4.97377802     -13.04125432      -2.97562695
Br      -5.34271420     -14.54934112      -1.79577091
C       -1.79137258       1.79137258       1.79137258
C       -2.68101903       1.20312994       2.69036718
C       -3.48724330       2.00493407       3.50851262
C       -3.40550938       3.39554540       3.42840751
N       -4.17530647       4.28430038       4.21037587
C       -5.00105950       3.96512906       5.26982059
O       -5.14722489       2.85395334       5.76808401
C       -5.73035101       5.11472010       5.87599071
C       -5.98216896       5.10013719       7.25158631
C       -6.67427422       6.15414882       7.84852161
C       -7.13527803       7.21971034       7.07244921
C       -6.91603190       7.23976159       5.68736313
C       -6.19911261       6.18140012       5.09878512
C       -7.43399868       8.38140824       4.84134104
N       -8.36300245       7.91670516       3.81446508
N       -7.86696606       7.55782804       2.60704996
C       -8.93160181       7.10590139       1.93222408
C       -8.76622834       6.55760288       0.56430230
C      -10.10622313       7.24080268       2.69763157
C       -9.72881774       7.77831025       3.90671706
C      -10.51109812       8.13482382       5.11508570
C       -2.51276922       3.96032709       2.50669906
F       -2.42391803       5.29711902       2.41041523
C       -1.70266537       3.17514311       1.69240541
H       -2.75923171       0.12095329       2.76687172
H       -4.17454838       1.51272848       4.19023452
H       -4.02793855       5.26645746       4.00078980
H       -5.63802216       4.26609332       7.86052814
H       -6.86081735       6.13888631       8.91999075
H       -7.67932930       8.02639634       7.56013966
H       -6.05076721       6.17726035       4.01986387
H       -6.60103279       8.88797456       4.33961299
H       -7.95278172       9.13191880       5.44665029
H       -9.20605845       5.55744767       0.49475009
H       -7.70878190       6.47366999       0.29152801
H       -9.25489036       7.20545639      -0.16979683
H      -10.31871503       9.17045192       5.41284704
H      -10.25121160       7.47691572       5.95007329
H      -11.58725387       8.04258001       4.94038456
H       -1.01844310       3.65313323       0.99976864
C      -11.42780407       6.86572144       2.26596285
C      -12.53462810       6.55159090       1.90444029
Br     -14.32426896       6.04366838       1.31988890
C        1.79137258      -1.79137258       1.79137258
C        1.94331939      -1.48705198       3.14414479
C        2.74367135      -2.29561867       3.96139996
C        3.39349709      -3.40881340       3.42715178
N        4.21868933      -4.28114078       4.17015262
C        4.40314383      -4.29451713       5.53834819
O        3.81561866      -3.59600485       6.35763873
C        5.37936251      -5.30346799       6.03823133
C        5.15233093      -5.89797753       7.28358400
C        6.05371407      -6.83628109       7.78694949
C        7.19662478      -7.17251633       7.05829647
C        7.45571737      -6.56768312       5.81975612
C        6.52947044      -5.63765567       5.31217173
C        8.70421827      -6.91328802       5.03924167
N        9.54313975      -5.73947233       4.81156061
N        9.33457521      -5.00097333       3.69629553
C       10.18133527      -3.97075465       3.81763736
C       10.19624158      -2.89690025       2.79499169
C       10.96513550      -4.09866562       4.98085626
C       10.55361260      -5.25209956       5.60813289
C       10.99286102      -5.90092399       6.86722264
C        3.23437753      -3.68376653       2.06165130
F        3.85665843      -4.74746166       1.52733218
C        2.43795550      -2.89179028       1.24046810
H        1.44510381      -0.62330273       3.57865018
H        2.84623534      -2.02352711       5.00774894
H        4.65210829      -5.01891817       3.62415934
H        4.27082367      -5.63039185       7.86342811
H        5.86714849      -7.29914566       8.75340025
H        7.88863277      -7.90154967       7.47568287
H        6.73966566      -5.14357593       4.36464984
H        8.43517776      -7.33141941       4.06202318
H        9.31154726      -7.66303096       5.55677260
H       10.07711143      -1.91558757       3.26555721
H        9.38096667      -3.01914946       2.07386377
H       11.14095841      -2.90670510       2.24288641
H       11.25997285      -6.94820070       6.69384044
H       10.19759133      -5.86260940       7.61799988
H       11.87364301      -5.40753459       7.28904084
H        2.33418813      -3.14597545       0.19118140
C       11.98354373      -3.17246997       5.40347466
C       12.83646061      -2.39678112       5.75741757
Br      14.21555508      -1.14255784       6.32971331
C       -0.00445707       0.01189536      -1.78238275
H       -0.66409135       0.67374010      -2.43557963
H        0.65740317      -0.63156657      -2.45157240
C       -0.90989263      -0.90692880      -0.91072765
C        0.90977584       0.90977584      -0.90977584
C       -0.00465871       1.77757030       0.00794375
H       -0.66225468       2.44313916      -0.64384735
H        0.64322798       2.43503045       0.67728295
C       -1.78241447       0.00034974      -0.00472694
H       -2.45427497      -0.65498947       0.64260836
H       -2.43311707       0.67328779      -0.65473579
C       -0.91132561       0.90220522       0.91563759
C       -0.01476271      -0.02253852       1.78660255
H       -0.67934791      -0.69751639       2.42135241
H        0.63392994       0.61504881       2.47327442
C        0.01484550      -1.77751727      -0.01636693
H        0.67870853      -2.42144646      -0.68295456
H       -0.62264859      -2.45592969       0.64226336
C        1.78714474       0.01002794       0.00389507
H        2.44202412       0.67113390       0.66197326
H        2.45385902      -0.65136977      -0.64189061
C        0.91606151      -0.90478549       0.90901405
