186
Properties=species:S:1:pos:R:3 pbc="F F F"
C        1.79137258       1.79137258      -1.79137258
C        1.32173361       3.03297356      -2.21980898
C        2.12758654       3.85121259      -3.02189085
C        3.40343770       3.42892967      -3.39709491
N        4.28666023       4.18230928      -4.20101322
C        4.12970764       5.48944386      -4.61685765
O        3.22632896       6.25224369      -4.29068958
C        5.20815252       6.00761025      -5.50529904
C        5.56347532       7.35711758      -5.41329956
C        6.55959406       7.87742662      -6.23992397
C        7.19358547       7.05775289      -7.17609922
C        6.83278815       5.70834462      -7.30202384
C        5.84102062       5.18904181      -6.44923542
C        7.50194807       4.82421447      -8.33058542
N        6.53885054       4.27424054      -9.28108161
N        5.94827848       3.09065303      -8.99291256
C        5.07479575       2.90432776      -9.99060377
C        4.18295909       1.71951021      -9.98566422
C        5.16399056       3.94331580     -10.93735103
Br       4.14049606       4.07307234     -12.50078014
C        6.12264243       4.81564953     -10.47555308
C        6.64483292       6.08957355     -11.02660118
C        3.84511613       2.17088250      -2.96379674
F        5.06798955       1.74397994      -3.31948278
C        3.05667986       1.35112756      -2.16240646
H        0.32987028       3.37918957      -1.93799688
H        1.72598763       4.80739153      -3.34413222
H        5.16106452       3.71518666      -4.41893463
H        5.06381740       8.00525581      -4.69557042
H        6.83499199       8.92650001      -6.15820242
H        7.96220458       7.48884126      -7.81481946
H        5.53655076       4.14947155      -6.56186912
H        8.00652971       3.98535905      -7.83673158
H        8.26119268       5.36891565      -8.90124248
H        3.13732038       2.02436877     -10.09656705
H        4.26653469       1.15914259      -9.04830262
H        4.43855536       1.04415505     -10.80783951
H        7.73656405       6.06367532     -11.10177462
H        6.35815722       6.93131332     -10.38873008
H        6.25553887       6.28423740     -12.03044217
H        3.44106982       0.38914827      -1.84112688
C       -1.79137258      -1.79137258      -1.79137258
C       -2.54637210      -1.21517368      -2.81297038
C       -3.35120645      -2.01809115      -3.63139239
C       -3.40270612      -3.39769506      -3.42906110
N       -4.18226844      -4.28665128      -4.20106300
C       -4.88491342      -3.99732266      -5.35377307
O       -4.88795930      -2.92756690      -5.95373603
C       -5.66249658      -5.13257673      -5.92598850
C       -5.79690270      -5.22180681      -7.31518294
C       -6.52969007      -6.26445578      -7.88279880
C       -7.14814131      -7.21337946      -7.06591682
C       -7.04734333      -7.12601295      -5.66980033
C       -6.28884221      -6.08186383      -5.10859180
C       -7.73502423      -8.13938080      -4.78234293
N       -8.70013269      -7.50806830      -3.88597170
N       -8.27556941      -7.08371351      -2.67256114
C       -9.34721722      -6.48571194      -2.13679812
C       -9.24697644      -5.83138469      -0.80977239
C      -10.46162535      -6.59142285      -2.99160920
Br     -12.17012431      -5.91365417      -2.63057008
C      -10.03540647      -7.26570714      -4.11273144
C      -10.74375182      -7.66404262      -5.35321321
C       -2.64439658      -3.94881008      -2.38658871
F       -2.68530074      -5.27412761      -2.17202392
C       -1.83689781      -3.16305777      -1.57025830
H       -2.51961553      -0.14163378      -2.98580741
H       -3.93213188      -1.53431617      -4.41106334
H       -4.14238028      -5.25461484      -3.89819069
H       -5.32926747      -4.47780777      -7.95756838
H       -6.62449875      -6.33088108      -8.96431458
H       -7.72066101      -8.01297035      -7.53223395
H       -6.23080293      -5.99233758      -4.02475092
H       -6.99590178      -8.66580277      -4.16691579
H       -8.26761552      -8.89597348      -5.36776180
H       -9.59865090      -4.79599811      -0.86360719
H       -8.21258066      -5.81115376      -0.45024548
H       -9.85155523      -6.36727128      -0.07172341
H      -10.62192008      -8.73476546      -5.54532846
H      -10.35693010      -7.10832656      -6.21294395
H      -11.81789987      -7.46734516      -5.28497341
H       -1.25865017      -3.63148040      -0.78121441
C       -1.79137258       1.79137258       1.79137258
C       -1.42392977       3.11455855       2.03602784
C       -2.23156314       3.93222849       2.83689836
C       -3.40695831       3.42791858       3.39458539
N       -4.28355745       4.17384773       4.21257754
C       -4.23385667       5.52870501       4.47344748
O       -3.46009786       6.33738702       3.97177735
C       -5.26830018       6.03190483       5.42085681
C       -5.78118622       7.31940579       5.23330044
C       -6.74076172       7.82608612       6.11009682
C       -7.18002230       7.05735074       7.19006454
C       -6.65829888       5.77433239       7.41052535
C       -5.70578886       5.26525196       6.50825703
C       -7.11568327       4.94875318       8.59231151
N       -6.00533474       4.61003490       9.47880306
N       -5.31717337       3.46745031       9.24722039
C       -4.33167501       3.48442031      10.15363196
C       -3.31689903       2.40312034      10.16811415
C       -4.44120774       4.60923058      10.99421906
Br      -3.28579576       5.01769349      12.41085929
C       -5.53403880       5.32220046      10.55760579
C       -6.13817289       6.59068267      11.03215208
C       -3.74540006       2.09076093       3.14363438
F       -4.86988669       1.58504920       3.67651639
C       -2.95474059       1.26990598       2.34556731
H       -0.51118549       3.52545094       1.61042030
H       -1.90991000       4.95441258       3.01318880
H       -5.07302577       3.64813627       4.57402377
H       -5.43320527       7.92964142       4.40179694
H       -7.13968873       8.82588858       5.95411710
H       -7.92369735       7.47768027       7.86448769
H       -5.27606710       4.28127816       6.69054617
H       -7.56976092       4.01272602       8.24613341
H       -7.86981506       5.47464650       9.18688924
H       -2.30654160       2.82291844      10.12879616
H       -3.43122049       1.73494547       9.30781393
H       -3.40998736       1.80250333      11.07805923
H       -7.20672898       6.46295353      11.23233148
H       -6.01447469       7.37971496      10.28401096
H       -5.67364872       6.93586754      11.96070218
H       -3.25863163       0.24384092       2.16887242
C        1.79137258      -1.79137258       1.79137258
C        3.17947673      -1.72243610       1.67260332
C        3.99535560      -2.52183373       2.48350065
C        3.42454457      -3.39144397       3.41347373
N        4.16309109      -4.23409634       4.27279530
C        5.53044115      -4.24183979       4.46372822
O        6.33690804      -3.45789540       3.97445880
C        6.03528671      -5.28385071       5.40192440
C        7.14718740      -4.98929291       6.19741214
C        7.65347440      -5.94705979       7.07641046
C        7.06404032      -7.21078230       7.15261496
C        5.96486254      -7.53439324       6.34390083
C        5.44971789      -6.55399875       5.47558120
C        5.33890904      -8.90969506       6.40814386
N        5.38936259      -9.58883360       5.11597651
N        4.35935325      -9.41831492       4.25417590
C        4.73489638     -10.08160490       3.15322599
C        3.87155333     -10.06903677       1.94754343
C        5.97478239     -10.72027804       3.34959696
Br       6.86320851     -11.77182935       2.07931069
C        6.38177684     -10.40617512       4.62589308
C        7.59828732     -10.77133318       5.39138714
C        2.02665993      -3.45065135       3.50248409
F        1.45806041      -4.28596777       4.38742409
C        1.20538341      -2.65805337       2.70677710
H        3.64285103      -1.05101376       0.95319193
H        5.07152855      -2.44843178       2.35755105
H        3.59695678      -4.83769262       4.86053641
H        7.62036791      -4.01110609       6.13316963
H        8.51464063      -5.70851070       7.69654307
H        7.48196386      -7.94339413       7.84050731
H        4.61459127      -6.80870499       4.82459517
H        4.28733588      -8.83246997       6.70881450
H        5.83993561      -9.54948474       7.14193046
H        4.44115230      -9.74749261       1.06961128
H        3.02860847      -9.37973215       2.06563928
H        3.46788164     -11.06771763       1.75495066
H        7.33350359     -11.20968585       6.35882456
H        8.22246457      -9.88959976       5.56613628
H        8.20482519     -11.50856046       4.85683279
H        0.12844413      -2.72801493       2.81488591
C       -0.00445707       0.01189536      -1.78238275
H       -0.66409135       0.67374010      -2.43557963
H        0.65740317      -0.63156657      -2.45157240
C       -0.90989263      -0.90692880      -0.91072765
C        0.90977584       0.90977584      -0.90977584
C       -0.00465871       1.77757030       0.00794375
H       -0.66225468       2.44313916      -0.64384735
H        0.64322798       2.43503045       0.67728295
C       -1.78241447       0.00034974      -0.00472694
H       -2.45427497      -0.65498947       0.64260836
H       -2.43311707       0.67328779      -0.65473579
C       -0.91132561       0.90220522       0.91563759
C       -0.01476271      -0.02253852       1.78660255
H       -0.67934791      -0.69751639       2.42135241
H        0.63392994       0.61504881       2.47327442
C        0.01484550      -1.77751727      -0.01636693
H        0.67870853      -2.42144646      -0.68295456
H       -0.62264859      -2.45592969       0.64226336
C        1.78714474       0.01002794       0.00389507
H        2.44202412       0.67113390       0.66197326
H        2.45385902      -0.65136977      -0.64189061
C        0.91606151      -0.90478549       0.90901405
