170
Properties=species:S:1:pos:R:3 pbc="F F F"
C        1.78777492       1.78777492      -1.78777492
C        2.12235891       3.07384047      -1.39331899
C        2.89960938       3.86188062      -2.24273718
C        3.32797823       3.33427071      -3.45656185
N        3.05524466       2.06559257      -3.83080004
C        2.27372597       1.32888138      -3.00071805
N        4.08706295       4.05460851      -4.37796611
C        4.19469190       5.42367616      -4.46709711
O        3.56800297       6.21566041      -3.76737878
C        5.09116897       5.87575837      -5.51157979
C        5.24751106       7.12736557      -6.07614574
C        6.32230352       7.03205151      -6.98778503
C        6.78103080       5.73322075      -6.91771201
C        7.92606635       5.01914118      -7.54174431
O        8.94567333       5.98898742      -7.78719123
C        9.42478167       6.13142275      -9.05915440
C        8.65132423       5.94635410     -10.20889573
C        9.21082456       6.13888871     -11.47626257
C       10.53793459       6.54279116     -11.60530756
C       11.30818164       6.76597805     -10.46599034
C       10.75171699       6.56695498      -9.19945817
O        6.00344261       5.00950898      -6.05674198
H        1.78689350       3.47767283      -0.44234728
H        3.16927727       4.86342042      -1.92572953
H        2.04167413       0.33059700      -3.36080845
H        4.46324676       3.50144777      -5.13578839
H        4.66255009       8.00282158      -5.82742363
H        6.75029540       7.82479476      -7.58837835
H        7.60694913       4.45034534      -8.41918379
H        8.33909269       4.29861452      -6.82697711
H        7.60079639       5.67856763     -10.15281096
H        8.60375986       5.98474754     -12.36554957
H       10.96863589       6.69693652     -12.59162982
H       12.33769502       7.09825556     -10.57220622
C       11.58440560       6.82081490      -8.05238152
C       12.28178230       7.03342259      -7.09170483
Br      13.40938145       7.37719123      -5.53837187
C       -1.78777492      -1.78777492      -1.78777492
C       -2.42057783      -1.26440602      -2.90453452
C       -3.24728844      -2.09244377      -3.66449498
C       -3.40637354      -3.42267342      -3.28976383
N       -2.75495469      -3.96060827      -2.23607430
C       -1.97932733      -3.12797960      -1.49601846
N       -4.22929368      -4.31648314      -3.97386075
C       -5.27538685      -3.99993831      -4.81014002
O       -5.67422053      -2.85691086      -5.01991077
C       -5.92230448      -5.15229962      -5.40390304
C       -7.13654180      -5.25956253      -6.05491803
C       -7.23752349      -6.59215713      -6.51245943
C       -6.07099615      -7.22464316      -6.13632425
C       -5.51883584      -8.58233298      -6.38578302
O       -6.05751533      -9.03567346      -7.62866319
C       -6.73752191     -10.22079308      -7.65704383
C       -7.50848051     -10.70291997      -6.59517357
C       -8.19740108     -11.91434151      -6.71423325
C       -8.14359330     -12.64032454      -7.90211548
C       -7.40832921     -12.15180408      -8.98001673
C       -6.71401781     -10.94485980      -8.85925254
O       -5.28617609      -6.36679929      -5.41671819
H       -2.28873134      -0.22541468      -3.19276759
H       -3.73150443      -1.68269206      -4.54423073
H       -1.51000737      -3.59063539      -0.63243683
H       -4.12489948      -5.28204789      -3.69353555
H       -7.84296549      -4.45260546      -6.19722435
H       -8.03881852      -7.03138035      -7.09326964
H       -5.69733502      -9.24466470      -5.53447854
H       -4.43294414      -8.51551252      -6.51622766
H       -7.61654084     -10.14600501      -5.66962913
H       -8.78830744     -12.28577403      -5.87997550
H       -8.68451974     -13.57899908      -7.99368341
H       -7.38434249     -12.71342308      -9.91039123
C       -5.97707809     -10.47629626     -10.00422768
C       -5.35989107     -10.08387430     -10.96314435
Br      -4.36195187      -9.44936118     -12.51363151
C       -1.78777492       1.78777492       1.78777492
C       -1.65954855       3.16777854       1.76219128
C       -2.45754020       3.93767304       2.60901395
C       -3.36802210       3.30302980       3.44775889
N       -3.54220123       1.96376159       3.44567444
C       -2.73428950       1.23487309       2.63416281
N       -4.18880823       3.98786488       4.34296446
C       -3.98918109       5.25504534       4.84123874
O       -3.00006285       5.94491594       4.60606336
C       -5.03961865       5.70922870       5.72965979
C       -5.06627158       6.77103537       6.61371542
C       -6.36781313       6.81329681       7.16103012
C       -7.07545058       5.78887819       6.56763479
C       -8.49617128       5.35590706       6.63487351
O       -9.27752356       6.51484544       6.92948297
C      -10.09322205       6.49628954       8.02584724
C       -9.80064134       5.80230311       9.20362961
C      -10.67650622       5.85669777      10.29277185
C      -11.83700540       6.62454485      10.22448307
C      -12.12091033       7.34991019       9.06932951
C      -11.24964469       7.29035540       7.97813006
O       -6.25805310       5.08054083       5.73109964
H       -0.94863420       3.65631422       1.10196518
H       -2.36284827       5.01765608       2.57792287
H       -2.87657044       0.15973548       2.69677365
H       -4.91026611       3.42187311       4.76834370
H       -4.24115028       7.44311114       6.80853388
H       -6.76445798       7.53407764       7.86493289
H       -8.62330707       4.52236945       7.33080174
H       -8.81553066       5.00026798       5.64888568
H       -8.88448055       5.23104213       9.31665230
H      -10.44475360       5.30700208      11.20230129
H      -12.51328581       6.66929313      11.07462329
H      -13.01862262       7.96146416       9.02807002
C      -11.58089600       8.06583765       6.81086838
C      -11.85831898       8.71530403       5.83328671
Br     -12.30688847       9.76543624       4.25261984
C        1.78777492      -1.78777492       1.78777492
C        2.63652872      -1.22486556       2.72812409
C        3.45340717      -2.06130075       3.48951927
C        3.38743306      -3.43708313       3.29429460
N        2.52770389      -4.00363409       2.42029928
C        1.76441900      -3.16757830       1.67132809
N        4.18130862      -4.34708914       3.99123981
C        5.36895275      -4.08238322       4.63412920
O        5.93495524      -2.99191273       4.62417419
C        5.94440019      -5.23204233       5.30206462
C        7.21676050      -5.43097596       5.80328591
C        7.21397047      -6.69565516       6.43251443
C        5.93489446      -7.19492504       6.30214406
C        5.25782628      -8.41591892       6.81320665
O        5.90923417      -8.78199603       8.03062178
C        6.43115995     -10.03993126       8.14426762
C        6.97318739     -10.75869057       7.07469609
C        7.51367198     -12.03228738       7.28001648
C        7.54125830     -12.58708517       8.55768985
C        7.03738872     -11.86519680       9.63756451
C        6.49080196     -10.59542841       9.43189978
O        5.16873041      -6.33021220       5.57075095
H        2.67996362      -0.14975770       2.87719228
H        4.10768593      -1.61828605       4.23245525
H        1.12042280      -3.66263082       0.95002597
H        3.91644024      -5.31493433       3.86910836
H        8.03245559      -4.72336787       5.73697184
H        8.02902575      -7.16943793       6.96500483
H        5.22617357      -9.19917866       6.05112604
H        4.21946671      -8.17665793       7.06855968
H        7.01549541     -10.34456854       6.07211103
H        7.92592156     -12.58762443       6.44051098
H        7.96693681     -13.57505300       8.71521242
H        7.07769509     -12.29549883      10.63496288
C        5.99248149      -9.88441985      10.58070069
C        5.57513809      -9.28895018      11.54282145
Br       4.90032911      -8.32612609      13.09848935
C       -0.00445707       0.01189536      -1.78238275
H       -0.66409135       0.67374010      -2.43557963
H        0.65740317      -0.63156657      -2.45157240
C       -0.90989263      -0.90692880      -0.91072765
C        0.90977584       0.90977584      -0.90977584
C       -0.00465871       1.77757030       0.00794375
H       -0.66225468       2.44313916      -0.64384735
H        0.64322798       2.43503045       0.67728295
C       -1.78241447       0.00034974      -0.00472694
H       -2.45427497      -0.65498947       0.64260836
H       -2.43311707       0.67328779      -0.65473579
C       -0.91132561       0.90220522       0.91563759
C       -0.01476271      -0.02253852       1.78660255
H       -0.67934791      -0.69751639       2.42135241
H        0.63392994       0.61504881       2.47327442
C        0.01484550      -1.77751727      -0.01636693
H        0.67870853      -2.42144646      -0.68295456
H       -0.62264859      -2.45592969       0.64226336
C        1.78714474       0.01002794       0.00389507
H        2.44202412       0.67113390       0.66197326
H        2.45385902      -0.65136977      -0.64189061
C        0.91606151      -0.90478549       0.90901405
