141
Properties=species:S:1:pos:R:3 pbc="F F F"
C        0.00000000       0.00000000       0.00000000
C        0.87787090       0.87787090      -0.87787090
C        1.21245489       2.16393645      -0.48341497
C        1.98970536       2.95197660      -1.33283316
C        2.41807420       2.42436668      -2.54665782
N        2.14534064       1.15568854      -2.92089601
C        1.36382195       0.41897735      -2.09081402
N        3.17715892       3.14470449      -3.46806209
C        3.28478787       4.51377214      -3.55719309
O        2.65809895       5.30575639      -2.85747475
C        4.18126494       4.96585435      -4.60167577
C        4.33760704       6.21746155      -5.16624171
C        5.41239950       6.12214749      -6.07788100
C        5.87112677       4.82331672      -6.00780799
C        7.01616233       4.10923716      -6.63184028
O        8.03576930       5.07908339      -6.87728721
C        8.51487764       5.22151873      -8.14925038
C        7.74142020       5.03645007      -9.29899171
C        8.30092053       5.22898469     -10.56635854
C        9.62803057       5.63288713     -10.69540354
C       10.39827761       5.85607403      -9.55608632
C        9.84181297       5.65705096      -8.28955414
Br      10.94103006       5.99216683      -6.77531911
O        5.09353859       4.09960495      -5.14683795
H        0.87698947       2.56776881       0.46755674
H        2.25937325       3.95351640      -1.01582551
H        1.13177010      -0.57930702      -2.45090443
H        3.55334274       2.59154375      -4.22588436
H        3.75264607       7.09291755      -4.91751961
H        5.84039138       6.91489074      -6.67847432
H        6.69704511       3.54044131      -7.50927977
H        7.42918866       3.38871049      -5.91707309
H        6.69089236       4.76866360      -9.24290694
H        7.69385584       5.07484351     -11.45564555
H       10.05873187       5.78703249     -11.68172580
H       11.42779100       6.18835154      -9.66230220
C       -0.87787090      -0.87787090      -0.87787090
C       -1.66478767      -1.87397131      -0.32104732
C       -2.42888469      -2.68295334      -1.16267708
C       -2.39074272      -2.46263568      -2.53572032
N       -1.67093650      -1.46248815      -3.08850054
C       -0.91395395      -0.70783488      -2.25182450
N       -3.10126022      -3.23473514      -3.45393014
C       -3.59308678      -4.50496212      -3.25770420
O       -3.41035542      -5.17005314      -2.24092153
C       -4.32205368      -5.03448693      -4.39225445
C       -4.71554188      -6.32808476      -4.67768366
C       -5.47493868      -6.27013825      -5.86735105
C       -5.52441917      -4.94196337      -6.23586895
C       -6.22784284      -4.20839738      -7.32099956
O       -7.40842635      -4.94871655      -7.63499701
C       -7.60590038      -5.35488270      -8.92486367
C       -6.57254538      -5.70564988      -9.79866672
C       -6.86060392      -6.13855340     -11.09710644
C       -8.18192874      -6.24981358     -11.52457891
C       -9.22142398      -5.93821611     -10.65079787
C       -8.93403239      -5.49886530      -9.35552039
Br     -10.39711019      -5.10320677      -8.20819904
O       -4.78201327      -4.18915031      -5.36881792
H       -1.69193109      -2.03772762       0.75245718
H       -3.05237125      -3.45365106      -0.72269284
H       -0.31649014       0.05542008      -2.74229745
H       -3.11074401      -2.86525232      -4.39477453
H       -4.49408673      -7.19684815      -4.07214834
H       -5.97357521      -7.08790656      -6.37227467
H       -5.56153599      -4.01851042      -8.16671978
H       -6.55574728      -3.23194942      -6.94727554
H       -5.53177223      -5.67955285      -9.49113783
H       -6.04985661      -6.40168163     -11.77280665
H       -8.40302846      -6.59178100     -12.53268069
H      -10.25076880      -6.04391380     -10.98376213
C       -0.87787090       0.87787090       0.87787090
C       -1.05926519       0.58088059       2.21966052
C       -1.90136528       1.38903877       2.98411106
C       -2.52749829       2.47703769       2.38456273
N       -2.31897136       2.81042496       1.09252887
C       -1.51845763       1.99242841       0.36272729
N       -3.40261778       3.32461584       3.06269188
C       -4.09196977       3.04363057       4.22015276
O       -4.07627963       1.95516953       4.78988093
C       -4.90063974       4.14397976       4.70417556
C       -5.91330999       4.16371430       5.64428600
C       -6.29922981       5.51364287       5.79955531
C       -5.48834983       6.25134652       4.96255514
C       -5.32216603       7.70963081       4.72544293
O       -5.67734548       8.37781402       5.93698041
C       -6.65345924       9.33356178       5.89862573
C       -7.75057394       9.29316772       5.03312032
C       -8.72238600      10.29820478       5.07567299
C       -8.62074509      11.33628023       5.99929592
C       -7.55126786      11.36747171       6.89169839
C       -6.57616164      10.36729662       6.84495981
Br      -5.15022721      10.45966746       8.09862133
O       -4.66723492       5.41806998       4.25467659
H       -0.56417093      -0.26852864       2.68155925
H       -2.03175674       1.16064455       4.03631386
H       -1.41394493       2.27137313      -0.68195055
H       -3.65487801       4.16128342       2.55460942
H       -6.29791118       3.29811664       6.16705541
H       -7.04274305       5.91348844       6.47752495
H       -5.87542654       8.03202749       3.83931215
H       -4.26505851       7.93022360       4.53969014
H       -7.89374952       8.47759945       4.33111393
H       -9.56841958      10.26297054       4.39295478
H       -9.38051487      12.11323551       6.03373978
H       -7.48644409      12.16995016       7.62205048
C        0.87787090      -0.87787090       0.87787090
C        1.53971256      -0.34634374       1.97375001
C        2.36520311      -1.17555667       2.73375534
C        2.49409188      -2.51481797       2.38018886
N        1.81451434      -3.05946195       1.34794890
C        1.04052860      -2.22622481       0.60685992
N        3.31327472      -3.41105026       3.06560052
C        4.37960513      -3.09863104       3.87751693
O        4.80220454      -1.95942035       4.05970519
C        5.01666796      -4.25176887       4.48035824
C        6.24030394      -4.36930087       5.11170549
C        6.32598683      -5.69522675       5.59121441
C        5.14194532      -6.31322420       5.24708196
C        4.57052006      -7.65619272       5.53052699
O        5.12332732      -8.09715779       6.77165480
C        5.78275563      -9.29359429       6.80929683
C        6.52594250      -9.80809214       5.74282734
C        7.19544444     -11.02938502       5.87143430
C        7.15016379     -11.73325315       7.07290430
C        6.44306016     -11.21272134       8.15465645
C        5.76805969      -9.99583767       8.02452072
Br       4.83353716      -9.33343046       9.54154838
O        4.35958049      -5.45425485       4.52614615
H        1.43137379       0.69975952       2.24558727
H        2.87225445      -0.75912143       3.59733928
H        0.54772645      -2.69552996      -0.23988890
H        3.18688238      -4.37937556       2.80451291
H        6.96326785      -3.57275701       5.22705837
H        7.12970584      -6.13844750       6.16560309
H        4.72203586      -8.33650849       4.68822183
H        3.48848676      -7.56762831       5.67885718
H        6.62718409      -9.26959102       4.80568780
H        7.76466609     -11.42598681       5.03369200
H        7.67602908     -12.67971616       7.17174492
H        6.42586938     -11.75734720       9.09522815
