133
Properties=species:S:1:pos:R:3 pbc="F F F"
C        0.00000000       0.00000000       0.00000000
C        0.88156726       0.88156726      -0.88156726
C        2.26082689       0.68581721      -0.89789127
C        3.07315713       1.49469664      -1.70121174
C        2.50702076       2.49811030      -2.48701660
C        1.12058765       2.68453379      -2.45918523
C        0.30481361       1.87842432      -1.66186271
O        3.17364367       3.36608854      -3.30257663
C        4.56985417       3.17818824      -3.54832101
H        5.14266890       2.86313385      -2.67347541
C        4.75763453       2.13371689      -4.64958434
C        5.11811304       4.53609187      -4.01918467
O        5.29952378       4.78685468      -5.21843099
N        5.44361794       5.52584125      -3.13639486
C        5.38864120       5.55312431      -1.74441013
C        5.86696217       6.69615645      -1.10688457
C        5.84556843       6.76706286       0.28724751
C        5.33067043       5.69799258       1.00621575
C        4.87145033       4.60157939       0.30171994
N        4.90713714       4.50836334      -1.04948577
H        2.71648500      -0.09019066      -0.28841091
H        4.14233186       1.31641429      -1.67922586
H        0.67219729       3.46539228      -3.06879444
H       -0.76945712       2.03970680      -1.65801892
H        4.08566506       2.32101552      -5.49578223
H        4.52413262       1.12912711      -4.27647185
H        5.78920225       2.12309261      -5.01835650
H        5.78991903       6.35152123      -3.60703191
H        6.26493563       7.53104223      -1.67597799
H        6.22594227       7.64941717       0.79118213
H        4.44969709       3.73597958       0.80625297
C        5.28131855       5.73114976       2.44498779
C        5.23998635       5.75891890       3.64995938
Br       5.17315568       5.80381925       5.59829652
C       -0.88156726      -0.88156726      -0.88156726
C       -1.25703591      -2.14820166      -0.43929780
C       -2.06142147      -2.96141795      -1.24622611
C       -2.48961621      -2.50869551      -2.49383594
C       -2.10324527      -1.23519831      -2.92586309
C       -1.30325303      -0.41821816      -2.12362945
O       -3.26043055      -3.19447589      -3.38740239
C       -3.85721814      -4.43597218      -3.00317311
H       -3.21620634      -5.07305480      -2.39001702
C       -5.14802955      -4.16331285      -2.22959337
C       -4.17939426      -5.18844189      -4.30555343
O       -5.31858903      -5.19468355      -4.79153689
N       -3.22749202      -5.89677558      -4.98158645
C       -1.88178778      -6.11250603      -4.69188183
C       -1.17079227      -6.95637927      -5.54283164
C        0.17729728      -7.21476410      -5.28791697
C        0.78262262      -6.60843109      -4.19663879
C        0.01204279      -5.78110238      -3.40225018
N       -1.30264663      -5.53919730      -3.62314232
H       -0.92837697      -2.51565751       0.52932923
H       -2.32442852      -3.94358515      -0.86995834
H       -2.43281734      -0.87578655      -3.89778012
H       -1.01761254       0.56793430      -2.47859036
H       -5.76251595      -3.40711622      -2.73283063
H       -4.92637608      -3.77544207      -1.22791343
H       -5.74340820      -5.07539705      -2.11184612
H       -3.60223440      -6.33198648      -5.81425129
H       -1.64981656      -7.42451672      -6.39762257
H        0.73479235      -7.87902810      -5.93994156
H        0.42928266      -5.27094756      -2.53775880
C        2.17274037      -6.83970145      -3.90051944
C        3.33696398      -7.03339037      -3.65251948
Br       5.21941510      -7.34656897      -3.25152454
C       -0.88156726       0.88156726       0.88156726
C       -2.12850651       0.41928062       1.29674825
C       -2.94177778       1.22600483       2.10128292
C       -2.50878436       2.49339566       2.48996764
C       -1.25499564       2.94534691       2.06396413
C       -0.43797199       2.14350447       1.26362418
O       -3.19749492       3.38884799       3.25596594
C       -4.41559254       2.99034756       3.89042332
H       -5.05263989       2.34783518       3.27880309
C       -4.09527056       2.25377465       5.19189055
C       -5.19086163       4.28232060       4.20020735
O       -5.18236641       4.79466584       5.32777721
N       -5.93655045       4.91936092       3.24994268
C       -6.17625073       4.59324046       1.91668445
C       -7.05598542       5.40765210       1.20636565
C       -7.33918928       5.11526755      -0.12907304
C       -6.72143851       4.02427477      -0.72326602
C       -5.85820054       3.26741403       0.04569520
N       -5.59143489       3.52463129       1.34892006
H       -2.48054950      -0.56498175       0.99913750
H       -3.90853597       0.83357229       2.39586375
H       -0.91104874       3.93273428       2.36260099
H        0.53275035       2.51420132       0.94681764
H       -3.33719971       2.78853876       5.77672432
H       -3.68916142       1.25633155       4.98423862
H       -4.99042770       2.12914166       5.81108201
H       -6.38248840       5.75039044       3.61559333
H       -7.53295804       6.26249016       1.67650765
H       -8.03121366       5.73859139      -0.68562774
H       -5.33758691       2.40529709      -0.36346030
C       -6.97753919       3.69034272      -2.10040139
C       -7.19202350       3.41067463      -3.25375226
Br      -7.53882650       2.95847498      -5.11862308
C        0.88156726      -0.88156726       0.88156726
C        1.31305353      -2.12001912       0.41146273
C        2.11765116      -2.93331058       1.21810378
C        2.49011547      -2.50881551       2.49321668
C        2.04784014      -1.26351849       2.95294805
C        1.24735453      -0.44648195       2.15126416
O        3.25414366      -3.19877409       3.38939109
C        3.90400421      -4.40691634       2.98544288
H        3.30464742      -5.04355387       2.33107687
C        5.20927623      -4.06720472       2.26445482
C        4.20892438      -5.19155861       4.27290660
O        5.33144529      -5.17726908       4.79609509
N        3.25984574      -5.95230943       4.89369888
C        1.93210332      -6.20152125       4.55255106
C        1.22254953      -7.09572773       5.35172592
C       -0.10727644      -7.38878326       5.04387696
C       -0.69697800      -6.76627217       3.95315309
C        0.07082455      -5.88855579       3.21192943
N        1.36893113      -5.61190572       3.48414940
H        1.02819050      -2.46542052      -0.57890577
H        2.42519907      -3.89342167       0.81935128
H        2.33377712      -0.92623266       3.94637423
H        0.91775132       0.51759025       2.52810754
H        5.78171193      -3.30877613       2.81197473
H        5.00722110      -3.65354246       1.26896802
H        5.83817599      -4.95520621       2.13726917
H        3.62184715      -6.40270134       5.72392368
H        1.68910421      -7.57638754       6.20646410
H       -0.66306515      -8.09200466       5.65523780
H       -0.33509842      -5.36361008       2.35091205
C       -2.06836217      -7.03222463       3.60361806
C       -3.21689642      -7.25495982       3.31088247
Br      -5.07397915      -7.61510378       2.83755378
