125
Properties=species:S:1:pos:R:3 pbc="F F F"
C        0.00000000       0.00000000       0.00000000
C        0.88156726       0.88156726      -0.88156726
C        2.26082689       0.68581721      -0.89789127
C        3.07315713       1.49469664      -1.70121174
C        2.50702076       2.49811030      -2.48701660
C        1.12058765       2.68453379      -2.45918523
C        0.30481361       1.87842432      -1.66186271
O        3.17364367       3.36608854      -3.30257663
C        4.56985417       3.17818824      -3.54832101
H        5.14266890       2.86313385      -2.67347541
C        4.75763453       2.13371689      -4.64958434
C        5.11811304       4.53609187      -4.01918467
O        5.29952378       4.78685468      -5.21843099
N        5.44361794       5.52584125      -3.13639486
C        5.38864120       5.55312431      -1.74441013
C        5.86696217       6.69615645      -1.10688457
C        5.84556843       6.76706286       0.28724751
C        5.33067043       5.69799258       1.00621575
Br       5.26612380       5.74135839       2.88796537
C        4.87145033       4.60157939       0.30171994
N        4.90713714       4.50836334      -1.04948577
H        2.71648500      -0.09019066      -0.28841091
H        4.14233186       1.31641429      -1.67922586
H        0.67219729       3.46539228      -3.06879444
H       -0.76945712       2.03970680      -1.65801892
H        4.08566506       2.32101552      -5.49578223
H        4.52413262       1.12912711      -4.27647185
H        5.78920225       2.12309261      -5.01835650
H        5.78991903       6.35152123      -3.60703191
H        6.26493563       7.53104223      -1.67597799
H        6.22594227       7.64941717       0.79118213
H        4.44969709       3.73597958       0.80625297
C       -0.88156726      -0.88156726      -0.88156726
C       -0.36007943      -2.04842922      -1.43602672
C       -1.16345450      -2.85717034      -2.24844069
C       -2.48649024      -2.49944389      -2.50621352
C       -2.99624122      -1.32383682      -1.94422863
C       -2.20015393      -0.51459774      -1.13034897
O       -3.37598588      -3.18009724      -3.28622573
C       -3.03570993      -4.47695104      -3.78370245
H       -1.99673682      -4.57773378      -4.10480757
C       -3.31096881      -5.52526291      -2.70470404
C       -3.94228687      -4.73092185      -5.00018086
O       -4.96916535      -5.41839965      -4.91724446
N       -3.65128269      -4.22131001      -6.23326135
C       -2.57561882      -3.44715553      -6.66340129
C       -2.51119840      -3.13815576      -8.02064902
C       -1.44590736      -2.37590325      -8.50357318
C       -0.48132174      -1.92913459      -7.61199093
Br       0.97251644      -0.88833448      -8.20369878
C       -0.61718493      -2.27342163      -6.28070322
N       -1.63227971      -3.03178370      -5.80092284
H        0.67011275      -2.33834617      -1.24647183
H       -0.71789399      -3.75206605      -2.66801197
H       -4.02676997      -1.03824422      -2.14136982
H       -2.61795538       0.39240951      -0.70272274
H       -4.29203053      -5.37086752      -2.23956475
H       -2.56655542      -5.46140931      -1.90176686
H       -3.27493553      -6.54026267      -3.11545317
H       -4.34507038      -4.48161058      -6.92179120
H       -3.27184396      -3.48772080      -8.71239109
H       -1.38329597      -2.14011119      -9.56077014
H        0.10057793      -1.94806563      -5.53193599
C       -0.88156726       0.88156726       0.88156726
C       -1.98668869       0.33094211       1.52690458
C       -2.80011431       1.13652794       2.33242328
C       -2.50893120       2.49096761       2.49224886
C       -1.39695719       3.03074906       1.83660043
C       -0.58002486       2.23103107       1.03404471
O       -3.21772610       3.39374414       3.23083860
C       -4.27617402       2.94095686       4.07923254
H       -4.88572603       2.14208818       3.65146395
C       -3.69203972       2.44581236       5.40308368
C       -5.18441502       4.15630474       4.33266982
O       -5.10821299       4.82277838       5.37381809
N       -6.12758351       4.55091390       3.42735664
C       -6.48341426       4.00852607       2.19423531
C       -7.55356408       4.59497029       1.52146880
C       -7.95723194       4.07991423       0.28823762
C       -7.26831263       3.00105001      -0.24691537
Br      -7.76049215       2.27067376      -1.91164909
C       -6.21527996       2.47747350       0.47855632
N       -5.82672681       2.95130243       1.68695702
H       -2.22777654      -0.72229408       1.40922279
H       -3.65544958       0.67229760       2.81022484
H       -1.16413747       4.08618301       1.95606354
H        0.27954092       2.67122167       0.53658787
H       -2.95153431       3.15027009       5.80065840
H       -3.17576106       1.48788518       5.26608535
H       -4.47489749       2.30022388       6.15552999
H       -6.63911446       5.36326521       3.74609250
H       -8.08585653       5.44185074       1.94424859
H       -8.79626984       4.52454936      -0.23664189
H       -5.63143827       1.63772300       0.11026242
C        0.88156726      -0.88156726       0.88156726
C        0.50472172      -2.19714993       1.14266372
C        1.30768559      -3.00740014       1.95397979
C        2.48582257      -2.50270014       2.50362496
C        2.85083034      -1.17906099       2.23441535
C        2.05507491      -0.36692765       1.42309808
O        3.35376772      -3.16931141       3.31922971
C        3.18560413      -4.57246175       3.53829754
H        2.14605361      -4.89052849       3.64269607
C        3.81333799      -5.34822443       2.37937335
C        3.92378318      -4.90281251       4.84679389
O        5.06006950      -5.39559182       4.84914814
N        3.35624522      -4.68074262       6.06886621
C        2.10281160      -4.17543911       6.40792493
C        1.77294041      -4.13585648       7.76120630
C        0.52358843      -3.65023228       8.15156308
C       -0.35680527      -3.20167691       7.17757561
Br      -2.05149592      -2.52599329       7.64501945
C        0.04488939      -3.26922285       5.85719754
N        1.24431876      -3.75943082       5.46123668
H       -0.41227668      -2.60323282       0.72374912
H        0.97527536      -4.02238028       2.14031638
H        3.76777720      -0.77852215       2.66008466
H        2.35955824       0.65699067       1.22570103
H        4.80911791      -4.96053388       2.13281101
H        3.20351795      -5.25353181       1.47268182
H        3.90191239      -6.41467248       2.61406650
H        3.97089515      -4.95284112       6.82473589
H        2.46844516      -4.48482065       8.51869004
H        0.25547950      -3.62607920       9.20261861
H       -0.59569240      -2.92659066       5.04852544
