146
Properties=species:S:1:pos:R:3 pbc="F F F"
C        1.79147128       1.79147128      -1.79147128
C        3.17073091       1.59572124      -1.80779530
C        3.98306116       2.40460067      -2.61111577
C        3.41692478       3.40801432      -3.39692063
C        2.03049167       3.59443782      -3.36908926
C        1.21471763       2.78832835      -2.57176673
O        4.08354770       4.27599257      -4.21248065
C        5.47975820       4.08809227      -4.45822503
H        6.05257292       3.77303788      -3.58337944
C        5.66753856       3.04362091      -5.55948837
C        6.02801707       5.44599589      -4.92908870
O        6.20942781       5.69675871      -6.12833502
N        6.35352197       6.43574527      -4.04629888
C        6.29854522       6.46302834      -2.65431415
C        6.77686619       7.60606047      -2.01678859
C        6.75547245       7.67696689      -0.62265652
C        6.24057445       6.60789660       0.09631172
Br       6.17602783       6.65126241       1.97806135
C        5.78135435       5.51148341      -0.60818408
N        5.81704116       5.41826736      -1.95938980
H        3.62638902       0.81971336      -1.19831494
H        5.05223588       2.22631832      -2.58912988
H        1.58210132       4.37529631      -3.97869846
H        0.14044690       2.94961083      -2.56792295
H        4.99556908       3.23091954      -6.40568625
H        5.43403665       2.03903113      -5.18637587
H        6.69910628       3.03299663      -5.92826053
H        6.69982305       7.26142526      -4.51693593
H        7.17483965       8.44094626      -2.58588201
H        7.13584630       8.55932119      -0.11872189
H        5.35960112       4.64588360      -0.10365105
C       -1.79147128      -1.79147128      -1.79147128
C       -1.76859935      -3.17513038      -1.63051772
C       -2.57183774      -3.98731707      -2.43962278
C       -3.39670664      -3.41663702      -3.40851607
C       -3.40801919      -2.02574762      -3.56025193
C       -2.61093082      -1.21020315      -2.75367874
O       -4.21729360      -4.08205390      -4.27267342
C       -4.42347647      -5.48829319      -4.11430584
H       -3.52696398      -6.04631073      -3.83571552
C       -5.49282422      -5.72986684      -3.04795677
C       -4.91498013      -6.01450357      -5.47361796
O       -6.11534783      -6.22008023      -5.69909348
N       -4.04984621      -6.29280467      -6.49291523
C       -2.66079740      -6.20178456      -6.55330575
C       -2.04088126      -6.63524133      -7.72359266
C       -0.64996300      -6.57664651      -7.82848636
C        0.08297034      -6.07030265      -6.76482702
Br       1.96082857      -5.95686396      -6.85319350
C       -0.60458568      -5.65648170      -5.63995447
N       -1.95168281      -5.72882216      -5.51419335
H       -1.12846712      -3.63424631      -0.88170390
H       -2.51881481      -5.05967945      -2.28918983
H       -4.04822331      -1.57377783      -4.31409494
H       -2.63783443      -0.13251270      -2.88763355
H       -6.35991711      -5.07519703      -3.19706073
H       -5.10018929      -5.51193820      -2.04731617
H       -5.83550934      -6.77042572      -3.05442838
H       -4.53259651      -6.63037875      -7.31520898
H       -2.62097837      -7.02673083      -8.55395872
H       -0.15935303      -6.92208062      -8.73245573
H       -0.08881685      -5.24363110      -4.77668783
C       -1.79147128       1.79147128       1.79147128
C       -2.81211527       1.21654631       2.54558586
C       -3.62551024       2.02162218       3.35164518
C       -3.41867248       3.39980204       3.40338522
C       -2.39112377       3.96366277       2.63923221
C       -1.57445117       3.16485880       1.83550274
O       -4.13891609       4.30376642       4.12933840
C       -5.10674927       3.84324587       5.07608036
H       -5.68609619       2.97916989       4.74372415
C       -4.40576387       3.47920261       6.38568135
C       -6.07836319       5.01209426       5.31264420
O       -5.98132457       5.75226161       6.30093535
N       -7.10287378       5.28175392       4.45093842
C       -7.49921944       4.63386367       3.28280459
C       -8.64837659       5.10234456       2.64899409
C       -9.09423669       4.47857308       1.48228609
C       -8.36853095       3.41204649       0.97158189
Br      -8.91548153       2.53847125      -0.60472388
C       -7.23735017       3.00868189       1.65498979
N       -6.80529648       3.58872463       2.80067721
H       -2.98712377       0.14435942       2.51293414
H       -4.41423599       1.53726056       3.91618754
H       -2.22438316       5.03762743       2.67408550
H       -0.78112389       3.62420599       1.25265079
H       -3.69148733       4.25564891       6.68503863
H       -3.83459926       2.54938621       6.27545818
H       -5.12659337       3.33566122       7.19810885
H       -7.64756439       6.07947544       4.75114442
H       -9.20940937       5.94027360       3.05198495
H       -9.99400728       4.83096698       0.98891513
H       -6.62197754       2.18492890       1.30222933
C        1.79147128      -1.79147128       1.79147128
C        1.34734913      -3.05639494       2.17050338
C        2.15042410      -3.86605316       2.98230034
C        3.39587357      -3.41133589       3.41465027
C        3.82817203      -2.13808922       3.02775750
C        3.03239647      -1.32707230       2.21534394
O        4.27350567      -4.08240287       4.21611238
C        4.02822028      -5.45219664       4.54565857
H        2.97989929      -5.68745837       4.74163257
C        4.51835205      -6.34641839       3.40587740
C        4.83437323      -5.74646182       5.82226660
O        5.93251569      -6.31795651       5.78404934
N        4.37173266      -5.40337146       7.06046200
C        3.18224726      -4.78826578       7.44537467
C        2.95334318      -4.63502768       8.81134439
C        1.77027459      -4.03637730       9.24844398
C        0.85438666      -3.59199548       8.30577720
Br      -0.75369912      -2.76721727       8.83571074
C        1.15525721      -3.77600297       6.96976168
N        2.28793602      -4.37601996       6.53074234
H        0.37771067      -3.42291687       1.84378979
H        1.76522963      -4.83997766       3.26247679
H        4.79787231      -1.77663055       3.36159322
H        3.38960330      -0.34299367       1.92538371
H        5.51759266      -6.04821945       3.06636276
H        3.85295009      -6.26905869       2.53743488
H        4.55214932      -7.39843519       3.70977893
H        5.01932628      -5.66769201       7.79116595
H        3.67639275      -4.98151829       9.54375688
H        1.58020151      -3.92306839      10.31061948
H        0.48278565      -3.44315466       6.18319546
C       -0.00445707       0.01189536      -1.78238275
H       -0.66409135       0.67374010      -2.43557963
H        0.65740317      -0.63156657      -2.45157240
C       -0.90989263      -0.90692880      -0.91072765
C        0.90977584       0.90977584      -0.90977584
C       -0.00465871       1.77757030       0.00794375
H       -0.66225468       2.44313916      -0.64384735
H        0.64322798       2.43503045       0.67728295
C       -1.78241447       0.00034974      -0.00472694
H       -2.45427497      -0.65498947       0.64260836
H       -2.43311707       0.67328779      -0.65473579
C       -0.91132561       0.90220522       0.91563759
C       -0.01476271      -0.02253852       1.78660255
H       -0.67934791      -0.69751639       2.42135241
H        0.63392994       0.61504881       2.47327442
C        0.01484550      -1.77751727      -0.01636693
H        0.67870853      -2.42144646      -0.68295456
H       -0.62264859      -2.45592969       0.64226336
C        1.78714474       0.01002794       0.00389507
H        2.44202412       0.67113390       0.66197326
H        2.45385902      -0.65136977      -0.64189061
C        0.91606151      -0.90478549       0.90901405
