146
Properties=species:S:1:pos:R:3 pbc="F F F"
C        1.78773308       1.78773308      -1.78773308
C        1.84152173       3.15643189      -1.58631692
C        2.62945480       3.93451046      -2.43544779
C        3.34158444       3.32405802      -3.46490764
N        3.33832706       1.98517765      -3.64001672
C        2.55047740       1.25002047      -2.81108455
N        4.11340982       4.03099824      -4.39104433
C        4.05416782       5.38458069      -4.64218011
O        3.26558763       6.15347363      -4.10070638
C        4.99102644       5.86388757      -5.63960389
C        5.10449576       7.12376703      -6.19644588
C        6.19790072       7.08334452      -7.08647770
C        6.69106277       5.79496315      -7.03854656
C        7.82442850       5.11668452      -7.71825993
N        7.75931520       5.29919300      -9.16385123
N        6.84638287       4.61793343      -9.89551022
C        7.07905621       5.01930780     -11.14955803
C        8.14803761       5.91951128     -11.21562431
Br       8.81899850       6.69908368     -12.77119894
C        8.58048798       6.08732736      -9.92707660
O        5.96332673       5.04621144      -6.15179283
H        1.27899861       3.63423173      -0.78938200
H        2.67307636       5.00292301      -2.25906725
H        2.54833528       0.18226811      -3.01205785
H        4.66404437       3.45257231      -5.01240441
H        4.46167446       7.96421209      -5.96908170
H        6.57479728       7.89363422      -7.69590981
H        7.83381100       4.03877900      -7.52822639
H        8.77581310       5.53566940      -7.37187585
H        6.46231785       4.62919218     -11.94856129
H        9.37527881       6.68037149      -9.49764551
C       -1.78773308      -1.78773308      -1.78773308
C       -2.76746160      -1.22729986      -2.58950909
C       -3.57859779      -2.06743413      -3.35338114
C       -3.39021461      -3.44605213      -3.29428335
N       -2.40532068      -4.00177370      -2.55642706
C       -1.63888824      -3.16453737      -1.80815681
N       -4.18840290      -4.36196707      -3.98508242
C       -5.42127317      -4.11210882      -4.54754664
O       -6.00876930      -3.03708544      -4.47391289
C       -6.02157318      -5.24002733      -5.23291739
C       -7.28087918      -5.35259110      -5.79123839
C       -7.36057318      -6.63567169      -6.37147806
C       -6.14828852      -7.24899783      -6.12728614
C       -5.59649831      -8.58210107      -6.48077357
N       -6.49828288      -9.65279456      -6.07128199
N       -6.60751587      -9.98812674      -4.76418392
C       -7.49493312     -10.98830900      -4.76467992
C       -7.91849421     -11.30462577      -6.06005323
Br      -9.12642170     -12.65200095      -6.51085847
C       -7.26346795     -10.43772819      -6.89369580
O       -5.32283000      -6.40013429      -5.43836671
H       -2.92099395      -0.15272689      -2.62889150
H       -4.33313112      -1.61540992      -3.98652558
H       -0.88447630      -3.65719020      -1.20099474
H       -3.86851439      -5.32085731      -3.93964939
H       -8.04015118      -4.58158966      -5.77322741
H       -8.20365418      -7.06434891      -6.89633822
H       -4.63154663      -8.76984865      -5.99942112
H       -5.46061056      -8.65728792      -7.56545987
H       -7.77995100     -11.43767198      -3.82244835
H       -7.27384946     -10.31243815      -7.96700820
C       -1.78773308       1.78773308       1.78773308
C       -2.68270404       1.22186131       2.67970519
C       -3.49837910       2.05897253       3.44206143
C       -3.39924063       3.43992717       3.29138229
N       -2.49511522       4.00535165       2.46305456
C       -1.72325458       3.16949199       1.71883585
N       -4.21094282       4.34878660       3.97572296
C       -5.39123643       4.06287388       4.62681831
O       -5.91451445       2.95301671       4.65223647
C       -6.01917028       5.19414422       5.28120339
C       -7.24842480       5.26755454       5.90872934
C       -7.37332289       6.57720735       6.41719269
C       -6.21747843       7.24373451       6.06335955
C       -5.72944160       8.62594631       6.30398504
N       -6.71790226       9.61505994       5.88939723
N       -6.92345139       9.86211906       4.57425607
C       -7.86940314      10.80712765       4.57139124
C       -8.23564917      11.17766521       5.86985882
Br      -9.49621147      12.47778565       6.31528399
C       -7.48097916      10.40345628       6.71045650
O       -5.38263540       6.40338659       5.37530902
H       -2.76703841       0.14466510       2.79090883
H       -4.18546594       1.60380042       4.14580026
H       -1.03728673       3.66674366       1.03863085
H       -3.95406019       5.32001634       3.85494455
H       -7.95839874       4.45407031       5.98249919
H       -8.20931788       6.98772777       6.96729565
H       -4.80754944       8.83940232       5.75386463
H       -5.53561572       8.77574289       7.37199975
H       -8.23592944      11.18011587       3.62402601
H       -7.42117736      10.34429103       7.78782742
C        1.78773308      -1.78773308       1.78773308
C        1.60931085      -3.16041096       1.81454873
C        2.40898805      -3.92993164       2.66049337
C        3.36491525      -3.30675448       3.45888036
N        3.58388248      -1.97546371       3.40417525
C        2.78152080      -1.24490451       2.58515711
N        4.17211286      -3.99311247       4.37022705
C        3.96201209      -5.26687863       4.85203791
O        2.99108921      -5.96145604       4.56722238
C        4.97490849      -5.74886303       5.77074638
C        4.99828393      -6.91642689       6.50999786
C        6.22047051      -6.93348327       7.21376916
C        6.87859976      -5.76728460       6.87868813
C        8.19601750      -5.19935975       7.26399570
N        8.35020185      -5.15839219       8.71376539
N        7.68145358      -4.23479424       9.44357871
C        8.06220720      -4.48504634      10.70066849
C        8.98623423      -5.53371866      10.76322032
Br       9.79084203      -6.18333736      12.31510171
C        9.16634905      -5.95568459       9.47285829
O        6.12705400      -5.04193042       5.99234658
H        0.85758435      -3.64603405       1.19899395
H        2.26807197      -5.00448126       2.66251339
H        2.96693862      -0.17446029       2.60126232
H        4.89709496      -3.43261818       4.79930795
H        4.21220209      -7.66018669       6.52257947
H        6.57426252      -7.69953483       7.89054396
H        8.32815474      -4.17720541       6.89545625
H        9.00500021      -5.81827913       6.86007901
H        7.65176303      -3.88563766      11.50267063
H        9.78358451      -6.72985281       9.03985849
C       -0.00445707       0.01189536      -1.78238275
H       -0.66409135       0.67374010      -2.43557963
H        0.65740317      -0.63156657      -2.45157240
C       -0.90989263      -0.90692880      -0.91072765
C        0.90977584       0.90977584      -0.90977584
C       -0.00465871       1.77757030       0.00794375
H       -0.66225468       2.44313916      -0.64384735
H        0.64322798       2.43503045       0.67728295
C       -1.78241447       0.00034974      -0.00472694
H       -2.45427497      -0.65498947       0.64260836
H       -2.43311707       0.67328779      -0.65473579
C       -0.91132561       0.90220522       0.91563759
C       -0.01476271      -0.02253852       1.78660255
H       -0.67934791      -0.69751639       2.42135241
H        0.63392994       0.61504881       2.47327442
C        0.01484550      -1.77751727      -0.01636693
H        0.67870853      -2.42144646      -0.68295456
H       -0.62264859      -2.45592969       0.64226336
C        1.78714474       0.01002794       0.00389507
H        2.44202412       0.67113390       0.66197326
H        2.45385902      -0.65136977      -0.64189061
C        0.91606151      -0.90478549       0.90901405
