125
Properties=species:S:1:pos:R:3 pbc="F F F"
C        0.00000000       0.00000000       0.00000000
C        0.87782905       0.87782905      -0.87782905
C        0.93161770       2.24652787      -0.67641290
C        1.71955078       3.02460644      -1.52554377
C        2.43168042       2.41415399      -2.55500361
N        2.42842304       1.07527363      -2.73011269
C        1.64057338       0.34011645      -1.90118052
N        3.20350580       3.12109421      -3.48114030
C        3.14426380       4.47467666      -3.73227609
O        2.35568360       5.24356961      -3.19080235
C        4.08112241       4.95398355      -4.72969986
C        4.19459174       6.21386301      -5.28654186
C        5.28799669       6.17344049      -6.17657367
C        5.78115875       4.88505913      -6.12864254
C        6.91452448       4.20678049      -6.80835590
N        6.84941117       4.38928898      -8.25394721
N        5.93647885       3.70802941      -8.98560620
C        6.16915219       4.10940377     -10.23965400
C        7.23813359       5.00960726     -10.30572029
Br       7.90909447       5.78917965     -11.86129491
C        7.67058396       5.17742333      -9.01717258
O        5.05342270       4.13630741      -5.24188881
H        0.36909458       2.72432771       0.12052203
H        1.76317233       4.09301899      -1.34916323
H        1.63843126      -0.72763592      -2.10215382
H        3.75414035       2.54266828      -4.10250039
H        3.55177044       7.05430806      -5.05917768
H        5.66489325       6.98373019      -6.78600579
H        6.92390698       3.12887498      -6.61832236
H        7.86590908       4.62576537      -6.46197183
H        5.55241382       3.71928816     -11.03865727
H        8.46537479       5.77046747      -8.58774148
C       -0.87782905      -0.87782905      -0.87782905
C       -0.60376341      -1.02374609      -2.22704897
C       -1.45324187      -1.80767496      -3.00878415
C       -2.55557371      -2.42374941      -2.42151490
N       -2.80474519      -2.33143201      -1.09763217
C       -1.97300420      -1.54899889      -0.35986725
N       -3.48482471      -3.18310731      -3.13780829
C       -3.65595983      -3.19017851      -4.50507821
O       -3.02661041      -2.48001358      -5.28343157
C       -4.67875736      -4.09655746      -4.98949100
C       -5.17004828      -4.25313024      -6.27181809
C       -6.12413085      -5.29076204      -6.22311797
C       -6.17757613      -5.70867270      -4.90861159
C       -6.96005802      -6.76011707      -4.20948579
N       -8.38679157      -6.62522599      -4.48062980
N       -9.10003966      -5.63408784      -3.89598695
C      -10.34126601      -5.81966118      -4.35728277
C      -10.42009674      -6.93470624      -5.19865815
Br     -11.96666280      -7.56265312      -6.03025312
C       -9.15205607      -7.44768134      -5.26544246
O       -5.29252516      -4.98858050      -4.15051328
H        0.25054197      -0.53592918      -2.68751306
H       -1.22031117      -1.92427755      -4.06076582
H       -2.23286533      -1.47240246       0.69231863
H       -4.16905883      -3.66293023      -2.56731996
H       -4.85839713      -3.67492000      -7.13193905
H       -6.70856619      -5.68032481      -7.04573823
H       -6.83146076      -6.71626111      -3.12338244
H       -6.64774224      -7.75251396      -4.55339008
H      -11.12290063      -5.13720953      -4.05024909
H       -8.73796715      -8.29895352      -5.78666308
C       -0.87782905       0.87782905       0.87782905
C       -1.78805501       1.75435312       0.31215034
C       -2.55015184       2.57096564       1.14858351
C       -2.38098694       2.49119912       2.52865196
N       -1.53428506       1.60472116       3.09480315
C       -0.79086165       0.83170534       2.25930336
N       -3.06413376       3.30572206       3.43588449
C       -3.73363318       4.47407582       3.14350755
O       -3.77953624       4.98291022       2.02760910
C       -4.38172484       5.10804799       4.27503300
C       -5.02378832       6.33019600       4.34101228
C       -5.51738740       6.46529238       5.65533109
C       -5.14065673       5.32248558       6.33171810
C       -5.35779806       4.84900872       7.72285409
N       -4.94342395       5.85500887       8.69421454
N       -3.62800459       6.08008441       8.92202546
C       -3.62530157       7.03787978       9.85502861
C       -4.92356813       7.39253191      10.23736110
Br      -5.36862791       8.66377996      11.52716117
C       -5.76415769       6.61768164       9.48334054
O       -4.45265177       4.48573871       5.49322845
H       -1.91376784       1.82365465      -0.76452222
H       -3.26816067       3.24339115       0.69380273
H       -0.09587130       0.16063702       2.75644085
H       -2.92798845       3.06267838       4.40864219
H       -5.11669453       7.02884272       3.51971892
H       -6.07285191       7.29947599       6.06230133
H       -4.79343258       3.93683706       7.94083469
H       -6.42131964       4.64376395       7.88856268
H       -2.67806337       7.42090504      10.21139084
H       -6.84134084       6.54367882       9.43856408
C        0.87782905      -0.87782905       0.87782905
C        1.59543752      -0.33109357       1.92802739
C        2.41949351      -1.16143328       2.68877419
C        2.50596480      -2.51636084       2.37851237
N        1.77237801      -3.07138758       1.39004378
C        0.98973977      -2.23974442       0.65238615
N        3.34327580      -3.40843189       3.05403262
C        4.40253359      -3.07772364       3.87095931
O        4.78107823      -1.92911111       4.07986623
C        5.08882571      -4.20549221       4.47048791
C        6.24264869      -4.22114182       5.23120609
C        6.47011844      -5.56163347       5.60625895
C        5.44909004      -6.30138482       5.04438557
C        5.10963524      -7.74726000       5.07276564
N        6.25010330      -8.56570740       4.67683666
N        6.62536817      -8.62724570       3.37750059
C        7.67394704      -9.45685912       3.38740380
C        7.93977020      -9.94072864       4.67296229
Br       9.29341056     -11.14117314       5.12498534
C        7.00998131      -9.36081833       5.49438022
O        4.59768211      -5.47896525       4.35497157
H        1.53558148       0.72732897       2.16464776
H        2.96584040      -0.72353483       3.51597933
H        0.44706687      -2.72190205      -0.15601976
H        3.22103468      -4.37982216       2.79845217
H        6.83621013      -3.35061084       5.47843520
H        7.28531912      -5.94305961       6.20625050
H        4.28558230      -7.99077991       4.39474211
H        4.82096791      -8.04595143       6.08672694
H        8.18353302      -9.66994802       2.45687821
H        6.82711910      -9.43996274       6.55650190
