70
Properties=species:S:1:pos:R:3 pbc="F F F"
C        1.78866409       1.78866409      -1.78866409
N        1.58369299       3.13542269      -1.91997459
C        2.53668335       3.50173153      -2.74584092
N        3.27928370       2.41038714      -3.09094127
C        4.41750236       2.35061832      -3.96957417
N        2.81796078       1.29860768      -2.48873773
H        4.78089901       1.32135113      -4.02732703
H        5.20216136       2.99565975      -3.56766650
H        4.10932364       2.68799062      -4.96191572
C        2.72927297       4.85766024      -3.19077526
C        2.89056678       5.99325054      -3.56340777
Br       3.15136522       7.82940400      -4.16592302
C       -1.78866409      -1.78866409      -1.78866409
N       -1.34376404      -2.33197368      -2.96335255
C       -2.38748121      -3.00204655      -3.39472804
N       -3.41360171      -2.86029424      -2.50671616
C       -4.73708047      -3.42080383      -2.57981055
N       -3.05291603      -2.08527933      -1.46711083
H       -5.31286094      -3.11385730      -1.70285894
H       -4.65353271      -4.50975585      -2.60219905
H       -5.22219806      -3.05091975      -3.48611217
C       -2.40037412      -3.75555091      -4.62178344
C       -2.41117193      -4.38661082      -5.64944234
Br      -2.42863108      -5.40698131      -7.31107985
C       -1.78866409       1.78866409       1.78866409
N       -3.07155788       1.44675739       2.12077500
C       -3.46202022       2.45153642       2.87069916
N       -2.44613208       3.35592613       2.97855390
C       -2.43568322       4.59989411       3.70211751
N       -1.36115706       2.95207589       2.29207324
H       -1.46217701       5.08285052       3.58454964
H       -2.61684620       4.38992907       4.75871234
H       -3.21786196       5.24544617       3.29592185
C       -4.77016374       2.54166752       3.46587722
C       -5.86573393       2.61715231       3.96433885
Br      -7.63717828       2.73920483       4.77030914
C        1.78866409      -1.78866409       1.78866409
N        2.94417095      -1.33223913       2.36268019
C        3.38279904      -2.38031336       3.02114341
N        2.51745613      -3.42005581       2.84310017
C        2.60536008      -4.75243160       3.37990317
N        1.48589308      -3.06419977       2.05521334
H        1.74554478      -5.33862009       3.04541230
H        2.60564541      -4.68937853       4.47046367
H        3.52759964      -5.21322433       3.01840601
C        4.59547870      -2.38456207       3.79766771
C        5.61109792      -2.38812036       4.44800681
Br       7.25326829      -2.39387382       5.49955013
C       -0.00445707       0.01189536      -1.78238275
H       -0.66409135       0.67374010      -2.43557963
H        0.65740317      -0.63156657      -2.45157240
C       -0.90989263      -0.90692880      -0.91072765
C        0.90977584       0.90977584      -0.90977584
C       -0.00465871       1.77757030       0.00794375
H       -0.66225468       2.44313916      -0.64384735
H        0.64322798       2.43503045       0.67728295
C       -1.78241447       0.00034974      -0.00472694
H       -2.45427497      -0.65498947       0.64260836
H       -2.43311707       0.67328779      -0.65473579
C       -0.91132561       0.90220522       0.91563759
C       -0.01476271      -0.02253852       1.78660255
H       -0.67934791      -0.69751639       2.42135241
H        0.63392994       0.61504881       2.47327442
C        0.01484550      -1.77751727      -0.01636693
H        0.67870853      -2.42144646      -0.68295456
H       -0.62264859      -2.45592969       0.64226336
C        1.78714474       0.01002794       0.00389507
H        2.44202412       0.67113390       0.66197326
H        2.45385902      -0.65136977      -0.64189061
C        0.91606151      -0.90478549       0.90901405
