82
Properties=species:S:1:pos:R:3 pbc="F F F"
C        0.58170636       5.29759955      -4.04220093
C        2.08466813       5.29933049      -4.16853166
O        2.63521706       5.65822025      -5.21079321
C        2.88932413       4.84794820      -2.98046710
N        2.64203022       3.45941323      -2.68077910
N        1.71370073       3.12392318      -1.76114651
C        1.78797164       1.78797164      -1.78797164
N        2.69957842       1.27628986      -2.66865362
C        3.22482960       2.34743813      -3.21647744
Br       4.55022920       2.29504442      -4.52981852
H        0.20726083       4.27235343      -4.07729347
H        0.14520968       5.86418588      -4.86911266
H        0.28890571       5.77623543      -3.10459013
H        2.63155110       5.45583926      -2.10694783
H        3.95756841       4.98088593      -3.17531154
C       -3.34941062      -0.84396337      -5.72813286
C       -3.70192153      -2.29970461      -5.55090413
O       -4.75936883      -2.75621666      -5.98864503
C       -2.72034385      -3.17573329      -4.82166228
N       -2.57220852      -2.76146199      -3.44855204
N       -1.57422887      -1.92231407      -3.10222748
C       -1.78797164      -1.78797164      -1.78797164
N       -2.85695523      -2.48679589      -1.30077079
C       -3.33233696      -3.09224666      -2.36416156
Br      -4.82759391      -4.20930802      -2.33819019
H       -3.46191433      -0.31635874      -4.77863467
H       -4.01814759      -0.39371560      -6.46664503
H       -2.32330784      -0.75372431      -6.09269911
H       -1.74531214      -3.13104668      -5.31797938
H       -3.05642702      -4.21663098      -4.84070788
C       -5.61180600       0.74715649       3.56254435
C       -5.28075388       2.07488634       4.19689005
O       -6.16202516       2.90050311       4.44170225
C       -3.83927079       2.35818987       4.52027876
N       -3.03906991       2.42069212       3.32246052
N       -2.38228506       1.32318002       2.89330534
C       -1.78797164       1.78797164       1.78797164
N       -2.03915301       3.10127549       1.50409341
C       -2.82677298       3.47723057       2.48474161
Br      -3.52798733       5.19945383       2.64765097
H       -5.29393419       0.74518954       2.51778400
H       -6.69151670       0.58085317       3.60613835
H       -5.11708212      -0.05818138       4.11083052
H       -3.44616121       1.57332490       5.17485208
H       -3.75157031       3.31025378       5.05194179
C        2.89919910      -5.92782237       1.09448538
C        3.75481618      -5.52744292       2.27027117
O        4.00335272      -6.32397294       3.17690486
C        4.29423525      -4.12356907       2.29993510
N        3.22810070      -3.15763370       2.39648815
N        2.73122041      -2.58904853       1.27850148
C        1.78797164      -1.78797164       1.78797164
N        1.66705692      -1.82854540       3.14891959
C        2.58480748      -2.69572525       3.50821243
Br       2.90481434      -3.19103135       5.27924644
H        1.91338662      -5.46547791       1.17804320
H        2.78232107      -7.01479092       1.08139623
H        3.38346586      -5.62247028       0.16379513
H        4.87300762      -3.93070261       1.39062796
H        4.96433389      -3.99446345       3.15496854
C       -0.00445707       0.01189536      -1.78238275
H       -0.66409135       0.67374010      -2.43557963
H        0.65740317      -0.63156657      -2.45157240
C       -0.90989263      -0.90692880      -0.91072765
C        0.90977584       0.90977584      -0.90977584
C       -0.00465871       1.77757030       0.00794375
H       -0.66225468       2.44313916      -0.64384735
H        0.64322798       2.43503045       0.67728295
C       -1.78241447       0.00034974      -0.00472694
H       -2.45427497      -0.65498947       0.64260836
H       -2.43311707       0.67328779      -0.65473579
C       -0.91132561       0.90220522       0.91563759
C       -0.01476271      -0.02253852       1.78660255
H       -0.67934791      -0.69751639       2.42135241
H        0.63392994       0.61504881       2.47327442
C        0.01484550      -1.77751727      -0.01636693
H        0.67870853      -2.42144646      -0.68295456
H       -0.62264859      -2.45592969       0.64226336
C        1.78714474       0.01002794       0.00389507
H        2.44202412       0.67113390       0.66197326
H        2.45385902      -0.65136977      -0.64189061
C        0.91606151      -0.90478549       0.90901405
