109
Properties=species:S:1:pos:R:3 pbc="F F F"
C        0.00000000       0.00000000       0.00000000
C        0.88080377       0.88080377      -0.88080377
C        1.96647407       0.32836916      -1.54708480
C        2.77627964       1.13634570      -2.35685549
C        2.52464944       2.51385851      -2.52239900
C        1.41560783       3.03527444      -1.83023251
C        0.59853021       2.23227425      -1.01651294
C        1.08482467       4.47012728      -1.95069365
O        0.12125442       4.93614712      -1.35230754
C        1.93192082       5.33407550      -2.80258427
C        1.59628171       6.69055578      -2.89931685
C        2.36099687       7.53540407      -3.68523936
C        3.45936062       7.02476156      -4.37324432
C        3.82492979       5.65754828      -4.29603087
C        4.93410883       5.11635977      -4.98438944
Br       6.07447465       6.15863269      -6.10121792
C        5.25250611       3.76599616      -4.87633280
C        4.47662718       2.92537095      -4.08283743
C        3.36062751       3.40383542      -3.37331424
C        3.03743956       4.78613053      -3.48611013
H        2.19680982      -0.73002517      -1.44756648
H        3.60974277       0.64530407      -2.85126522
H       -0.25074610       2.67108971      -0.49676118
H        0.73747331       7.08662690      -2.36068751
H        2.10619290       8.58958993      -3.76495506
H        4.03168139       7.72461318      -4.97883433
H        6.10702985       3.35232557      -5.40761894
H        4.77751350       1.88304279      -4.04063082
C       -0.88080377      -0.88080377      -0.88080377
C       -1.99326731      -0.33848475      -1.51017597
C       -2.80311262      -1.14646298      -2.31990523
C       -2.52483755      -2.51391380      -2.52215561
C       -1.38911517      -3.02527369      -1.86672593
C       -0.57180172      -2.22219202      -1.05332366
C       -1.02943482      -4.44924103      -2.02696974
O       -0.04246325      -4.90645108      -1.46079475
C       -1.87626621      -5.31307455      -2.87923983
C       -1.51293121      -6.65912445      -3.01409869
C       -2.27635136      -7.50346258      -3.80182636
C       -3.40106822      -7.00272095      -4.45357733
C       -3.79499837      -5.64618917      -4.33732141
C       -4.93120993      -5.11515412      -4.98849399
Br      -6.07321591      -6.15799785      -6.10311151
C       -5.27691963      -3.77507803      -4.84283741
C       -4.50207614      -2.93487569      -4.04788373
C       -3.35995760      -3.40353260      -3.37428696
C       -3.00885951      -4.77531058      -3.52551013
H       -2.24468383       0.71195339      -1.38162068
H       -3.65824075      -0.66359935      -2.78447196
H        0.29854868      -2.65305890      -0.56259456
H       -0.63357285      -7.04747075      -2.50374411
H       -2.00012343      -8.54957869      -3.91103577
H       -3.97131709      -7.70177133      -5.06204048
H       -6.15221905      -3.36920672      -5.34554860
H       -4.82495048      -1.90082443      -3.97541220
C       -0.88080377       0.88080377       0.88080377
C       -0.38273315       2.07515402       1.38404086
C       -1.19095620       2.88545237       2.19307227
C       -2.51443625       2.52580440       2.52066631
C       -2.98150350       1.30811347       1.99149782
C       -2.17793063       0.48989098       1.17949579
C       -4.35741885       0.85950744       2.28871930
O       -4.77564275      -0.19961245       1.83367878
C       -5.22101358       1.70589692       3.14167009
C       -6.52097441       1.25726885       3.40791108
C       -7.36345981       2.01726031       4.20092019
C       -6.90689322       3.22372812       4.72674515
C       -5.59754875       3.70498376       4.47597644
C       -5.11186357       4.92512040       4.99787407
Br      -6.15806778       6.07334533       6.10291215
C       -3.81721742       5.35490336       4.72271429
C       -2.97829507       4.58242865       3.92411184
C       -3.40309796       3.35915325       3.37552595
C       -4.72851190       2.92225323       3.65891509
H        0.63285424       2.39106580       1.15613957
H       -0.74389150       3.80683049       2.55559007
H       -2.57388912      -0.44506137       0.78827703
H       -6.87492961       0.31426585       2.99559226
H       -8.37394287       1.67508937       4.41170565
H       -7.60277769       3.78811810       5.34423312
H       -3.44625482       6.29480533       5.12591422
H       -1.98088655       4.97311453       3.74718604
C        0.88080377      -0.88080377       0.88080377
C        0.38360632      -2.07641410       1.38190761
C        1.19183097      -2.88671347       2.19093640
C        2.51444274      -2.52581224       2.52065198
C        2.98064010      -1.30686761       1.99360708
C        2.17705937      -0.48863452       1.18162352
C        4.35561316      -0.85690412       2.29312832
O        4.77307385       0.20331472       1.83994995
C        5.21919959      -1.70328020       3.14610080
C        6.51825724      -1.25335126       3.41454584
C        7.36070092      -2.01328046       4.20765893
C        6.90499427      -3.22098454       4.73138769
C        5.59657465      -3.70357232       4.47836197
C        5.11177164      -4.92497694       4.99810946
Br       6.15803041      -6.07327590       6.10301895
C        3.81801612      -5.35604286       4.72077609
C        2.97912679      -4.58361889       3.92208987
C        3.40307727      -3.35911855       3.37558134
C        4.72758118      -2.92090721       3.66119183
H       -0.63129401      -2.39331714       1.15232800
H        0.74547235      -3.80911040       2.55172931
H        2.57233089       0.44730845       0.79208234
H        6.87154197      -0.30938395       3.00386180
H        8.37048537      -1.67010315       4.42014937
H        7.60081165      -3.78527585       5.34904140
H        3.44773160      -6.29691906       5.12232371
H        1.98243540      -4.97533730       3.74341442
