178
Properties=species:S:1:pos:R:3 pbc="F F F"
C        1.82258565       1.82258565      -1.82258565
C        1.20117663       1.98507537      -3.19766670
O        1.92385378       3.01765721      -3.88560679
C        1.50582995       3.12246070      -5.19545120
C        0.42859688       3.94955413      -5.53829359
C        0.04166108       4.08246359      -6.86233484
C        0.75513196       3.43088773      -7.87310863
C        1.89523616       2.63149943      -7.58341214
C        2.82461574       1.91853953      -8.45665957
C        2.81402198       1.86102271      -9.92377202
O        3.71143453       1.32802765     -10.57018087
O        1.72489635       2.45232499     -10.48764025
C        1.70209050       2.53673884     -11.92022815
C        1.24552498       1.23040604     -12.54160731
C        3.80896597       1.27122862      -7.72024096
N        4.83517705       0.48516090      -8.23347942
C        5.85382446      -0.13499423      -7.52940510
O        6.09700534      -0.05877860      -6.33162535
C        6.69288677      -1.01352710      -8.42477648
S        3.63438591       1.50314497      -6.05750829
C        2.24261081       2.49375978      -6.23254592
H        2.80559183       1.34661588      -1.88220862
H        1.93680633       2.78267498      -1.31094676
H        0.14650421       2.26843207      -3.10350028
H        1.25331700       1.03657542      -3.74773771
H       -0.80490200       4.70944951      -7.13368213
H        0.42309625       3.57915645      -8.89789499
H        2.67849233       2.85084155     -12.30636654
H        0.98717318       3.32713975     -12.17415256
H        1.97446358       0.43405033     -12.36566346
H        1.11476015       1.34331840     -13.62180002
H        0.29889886       0.90126915     -12.10181010
H        4.83955934       0.39147500      -9.24900976
H        6.95544955      -0.49139747      -9.34904383
H        6.13503454      -1.92452435      -8.65990632
H        7.61790585      -1.28626762      -7.90870316
C       -0.29247078       4.71271775      -4.55277711
C       -0.89636494       5.35186728      -3.72740706
Br      -1.87281072       6.38531801      -2.39285349
C       -1.82258565      -1.82258565      -1.82258565
C       -1.98533918      -1.20101642      -3.19756309
O       -2.59304222      -2.18170588      -4.05236968
C       -2.90240648      -1.63946028      -5.28187509
C       -1.96114965      -1.63607725      -6.31921769
C       -2.29382441      -1.12783180      -7.56480330
C       -3.58814435      -0.65963615      -7.81134781
C       -4.59827022      -0.70089308      -6.81098443
C       -6.01306311      -0.33817150      -6.84858023
C       -6.77927835       0.17264256      -7.99218093
O       -7.99522625       0.33729476      -7.95171156
O       -6.01637707       0.43941327      -9.08789779
C       -6.71059693       0.83253049     -10.28099105
C       -7.07610925       2.30434224     -10.24577134
C       -6.62096144      -0.56028218      -5.61919193
N       -7.95019777      -0.30195174      -5.30166787
C       -8.59362272      -0.55327632      -4.10133629
O       -8.14593328      -1.11460428      -3.10931452
C       -9.99965811      -0.00500955      -4.09946848
S       -5.55157027      -1.17593535      -4.46753354
C       -4.22172552      -1.19328471      -5.55390628
H       -2.78630101      -1.93132728      -1.31678803
H       -1.34910819      -2.80735545      -1.87396444
H       -1.00698255      -0.91253323      -3.59892078
H       -2.60767235      -0.29925120      -3.13070658
H       -1.56231360      -1.10623071      -8.36968533
H       -3.80545084      -0.28567651      -8.80902035
H       -7.59000080       0.19941397     -10.44511359
H       -6.02390134       0.65046480     -11.11502895
H       -7.81606881       2.50834791      -9.46645646
H       -7.49356742       2.62004586     -11.20635701
H       -6.19748447       2.91728584     -10.02177948
H       -8.50678414       0.08855092      -6.06181088
H      -10.52219533      -0.26732482      -5.02357576
H       -9.96138019       1.08281103      -3.99184735
H      -10.55657255      -0.42621158      -3.25755725
C       -0.63884982      -2.18143010      -6.15274417
C        0.46857629      -2.63816310      -6.01332259
Br       2.25919065      -3.37666174      -5.78788969
C       -1.82258565       1.82258565       1.82258565
C       -3.23929317       1.86477365       1.27985187
O       -4.07120357       2.48127708       2.27463713
C       -5.34748655       2.68307408       1.79318122
C       -6.32222809       1.68396048       1.91025603
C       -7.61398811       1.91016363       1.46230777
C       -7.96828241       3.15583270       0.93501320
C       -7.03246485       4.22375323       0.85392965
C       -7.17991487       5.60836910       0.41153088
C       -8.39737468       6.27235570      -0.07091367
O       -8.44292126       7.47587020      -0.30914841
O       -9.45696762       5.43099907      -0.22310510
C      -10.71229103       6.02771248      -0.58094602
C      -10.78683241       6.30175691      -2.07105097
C       -5.98006877       6.30037719       0.51998959
N       -5.76220374       7.62721996       0.16439367
C       -4.59181037       8.35474054       0.30168442
O       -3.54234238       8.00233084       0.82517887
C       -4.71032892       9.72133510      -0.32752788
S       -4.72941289       5.34137954       1.12424674
C       -5.72744130       3.95352691       1.28794829
H       -1.37261751       2.81934910       1.84244972
H       -1.78608306       1.40951718       2.83482783
H       -3.59488370       0.84831960       1.07523326
H       -3.26480760       2.43225757       0.34056496
H       -8.37134171       1.13257709       1.53431084
H       -8.99790794       3.29011612       0.61212364
H      -10.89357779       6.93384241       0.00828023
H      -11.48949716       5.30581391      -0.30684558
H      -10.06877578       7.07212295      -2.36672137
H      -11.78861216       6.64128499      -2.35001858
H      -10.54475813       5.40119494      -2.64397496
H       -6.57740602       8.11248802      -0.20984994
H       -5.64828366      10.20390777      -0.03909552
H       -4.66481589       9.62140395      -1.41580333
H       -3.88159808      10.35218397       0.00655934
C       -6.04140854       0.41052933       2.52108621
C       -5.80622217      -0.65596925       3.03265648
Br      -5.42594570      -2.38040726       3.85982235
C        1.82258565      -1.82258565       1.82258565
C        3.11278317      -2.16887769       1.10225784
O        4.00103887      -2.76770666       2.05837225
C        5.14179415      -3.23864684       1.44330086
C        6.25192578      -2.40429260       1.26022622
C        7.40983926      -2.89692638       0.67969388
C        7.49732299      -4.24459412       0.31721119
C        6.42148567      -5.14747375       0.54118831
C        6.30133994      -6.58555505       0.31291986
C        7.32021513      -7.49862757      -0.22002598
O        7.15878484      -8.71488480      -0.26402658
O        8.44766584      -6.86957804      -0.65238229
C        9.53307992      -7.70574379      -1.07976622
C        9.32628141      -8.19270327      -2.50144634
C        5.05054498      -7.05204757       0.69784300
N        4.59561116      -8.36240907       0.59579715
C        3.37332589      -8.86436060       1.01054883
O        2.48190606      -8.27720062       1.61074541
C        3.19714172     -10.30611766       0.60087677
S        4.05999567      -5.82845349       1.30659000
C        5.25447690      -4.61161888       1.10282073
H        1.24764595      -2.72066442       2.06610595
H        2.00841847      -1.27240652       2.74960309
H        3.56831359      -1.26194983       0.68817314
H        2.90657378      -2.85798745       0.27306890
H        8.26949494      -2.25002032       0.51871438
H        8.43219682      -4.58755472      -0.11960385
H        9.67971993      -8.53844365      -0.38246317
H       10.43714538      -7.08836354      -1.03704343
H        8.46976709      -8.87001896      -2.56560868
H       10.21253776      -8.72555519      -2.85821438
H        9.12212422      -7.35332389      -3.17347000
H        5.26388994      -9.02064338       0.19551077
H        4.09312595     -10.88949005       0.83047991
H        2.99017817     -10.35240611      -0.47216778
H        2.35397550     -10.74164686       1.14471903
C        6.25362142      -1.02979914       1.68960352
C        6.25504151       0.12133912       2.04920702
Br       6.25733768       1.98263234       2.63065545
C       -0.00445707       0.01189536      -1.78238275
H       -0.66409135       0.67374010      -2.43557963
H        0.65740317      -0.63156657      -2.45157240
C       -0.90989263      -0.90692880      -0.91072765
C        0.90977584       0.90977584      -0.90977584
C       -0.00465871       1.77757030       0.00794375
H       -0.66225468       2.44313916      -0.64384735
H        0.64322798       2.43503045       0.67728295
C       -1.78241447       0.00034974      -0.00472694
H       -2.45427497      -0.65498947       0.64260836
H       -2.43311707       0.67328779      -0.65473579
C       -0.91132561       0.90220522       0.91563759
C       -0.01476271      -0.02253852       1.78660255
H       -0.67934791      -0.69751639       2.42135241
H        0.63392994       0.61504881       2.47327442
C        0.01484550      -1.77751727      -0.01636693
H        0.67870853      -2.42144646      -0.68295456
H       -0.62264859      -2.45592969       0.64226336
C        1.78714474       0.01002794       0.00389507
H        2.44202412       0.67113390       0.66197326
H        2.45385902      -0.65136977      -0.64189061
C        0.91606151      -0.90478549       0.90901405
