170
Properties=species:S:1:pos:R:3 pbc="F F F"
C        1.82258565       1.82258565      -1.82258565
C        1.20117663       1.98507537      -3.19766670
O        1.92385378       3.01765721      -3.88560679
C        1.50582995       3.12246070      -5.19545120
C        0.42859688       3.94955413      -5.53829359
Br      -0.52267931       4.95636587      -4.23814046
C        0.04166108       4.08246359      -6.86233484
C        0.75513196       3.43088773      -7.87310863
C        1.89523616       2.63149943      -7.58341214
C        2.82461574       1.91853953      -8.45665957
C        2.81402198       1.86102271      -9.92377202
O        3.71143453       1.32802765     -10.57018087
O        1.72489635       2.45232499     -10.48764025
C        1.70209050       2.53673884     -11.92022815
C        1.24552498       1.23040604     -12.54160731
C        3.80896597       1.27122862      -7.72024096
N        4.83517705       0.48516090      -8.23347942
C        5.85382446      -0.13499423      -7.52940510
O        6.09700534      -0.05877860      -6.33162535
C        6.69288677      -1.01352710      -8.42477648
S        3.63438591       1.50314497      -6.05750829
C        2.24261081       2.49375978      -6.23254592
H        2.80559183       1.34661588      -1.88220862
H        1.93680633       2.78267498      -1.31094676
H        0.14650421       2.26843207      -3.10350028
H        1.25331700       1.03657542      -3.74773771
H       -0.80490200       4.70944951      -7.13368213
H        0.42309625       3.57915645      -8.89789499
H        2.67849233       2.85084155     -12.30636654
H        0.98717318       3.32713975     -12.17415256
H        1.97446358       0.43405033     -12.36566346
H        1.11476015       1.34331840     -13.62180002
H        0.29889886       0.90126915     -12.10181010
H        4.83955934       0.39147500      -9.24900976
H        6.95544955      -0.49139747      -9.34904383
H        6.13503454      -1.92452435      -8.65990632
H        7.61790585      -1.28626762      -7.90870316
C       -1.82258565      -1.82258565      -1.82258565
C       -1.24230390      -1.92003804      -3.22157675
O       -1.95386164      -2.95340544      -3.91985070
C       -1.57643499      -3.00208860      -5.24521826
C       -0.48514922      -3.78148150      -5.64981388
Br       0.54068262      -4.79741744      -4.41509220
C       -0.13834528      -3.85881698      -6.98929726
C       -0.90558846      -3.19914104      -7.95439881
C       -2.06055303      -2.44780361      -7.60179108
C       -3.04087849      -1.73840523      -8.42053113
C       -3.08089100      -1.63342165      -9.88450407
O       -4.01595987      -1.11002770     -10.48365548
O       -1.99265114      -2.16977315     -10.50243730
C       -2.01475362      -2.20727285     -11.93703102
C       -1.62132830      -0.86718664     -12.52902340
C       -4.02052295      -1.14817230      -7.63174030
N       -5.08796574      -0.38053797      -8.08531367
C       -6.10207213       0.18246875      -7.32863195
O       -6.30274539       0.05973917      -6.12684587
C       -6.99823613       1.06097526      -8.16687528
S       -3.78342713      -1.42750675      -5.98410528
C       -2.36710219      -2.36519125      -6.23662307
H       -2.82182670      -1.37786852      -1.83472111
H       -1.88881222      -2.80189536      -1.33972049
H       -0.17651919      -2.17107775      -3.17083962
H       -1.34316471      -0.95659692      -3.73786850
H        0.71845803      -4.44827947      -7.30840820
H       -0.60318913      -3.30326624      -8.99369233
H       -2.99284051      -2.54106436     -12.30179555
H       -1.28362163      -2.96490980     -12.23993406
H       -2.36924898      -0.10155959     -12.30336880
H       -1.52296238      -0.94089896     -13.61601722
H       -0.67168586      -0.52109178     -12.10920046
H       -5.12909732      -0.25444259      -9.09650419
H       -7.27443773       0.56040095      -9.09905913
H       -6.47808676       1.99709385      -8.38942360
H       -7.91388933       1.28609512      -7.61254718
C       -1.82258565       1.82258565       1.82258565
C       -3.28035475       1.42600443       1.67755952
O       -4.02160953       2.09811456       2.70739369
C       -5.37668430       1.89710626       2.54995129
C       -6.00625243       0.78558778       3.12460439
Br      -5.04619926      -0.50708651       4.13271427
C       -7.37544216       0.61323903       2.99777833
C       -8.14776738       1.57386318       2.33749775
C       -7.56563742       2.75167795       1.79283235
C       -8.16235631       3.90838470       1.12907384
C       -9.58454157       4.15462987       0.85964528
O       -9.99516470       5.21583071       0.39864764
O      -10.39141526       3.10292199       1.17052434
C      -11.80572007       3.31095163       1.04238579
C      -12.25631239       3.15934396      -0.39811801
C       -7.19288142       4.83681539       0.77073874
N       -7.41226699       6.03754778       0.10400261
C       -6.47397672       7.00097497      -0.22671636
O       -5.28400806       7.02437822       0.06146581
C       -7.07726966       8.09724482      -1.07037833
S       -5.63618808       4.35177785       1.20707323
C       -6.17518147       2.88161267       1.91212237
H       -1.65841766       2.85971275       1.51628592
H       -1.46975833       1.70891715       2.85175259
H       -3.38858225       0.34093400       1.78892031
H       -3.64862414       1.70670271       0.68230328
H       -7.86817767      -0.25662654       3.42667850
H       -9.21987508       1.40218259       2.27809002
H      -12.09455147       4.28296700       1.45818196
H      -12.29014014       2.54292376       1.65540158
H      -11.84489143       3.95509751      -1.02581158
H      -13.34743287       3.19837136      -0.46592566
H      -11.90832731       2.20944627      -0.81579547
H       -8.38589260       6.22718840      -0.13303690
H       -8.02890137       8.43435832      -0.65016379
H       -7.23278866       7.72451289      -2.08688503
H       -6.39456914       8.95110519      -1.10533294
C        1.82258565      -1.82258565       1.82258565
C        3.24822832      -1.83351185       1.30217853
O        4.07407718      -2.45269833       2.30034228
C        5.36093349      -2.62641094       1.83639742
C        6.31744645      -1.61396536       1.98503279
Br       5.90716678       0.04670774       2.81136798
C        7.61963757      -1.81237275       1.55444919
C        8.00231133      -3.04358968       1.01322730
C        7.08525105      -4.12478721       0.90010947
C        7.26202735      -5.49956933       0.43821817
C        8.49754832      -6.13627116      -0.03500276
O        8.56628365      -7.33491035      -0.29155095
O        9.54571161      -5.27585046      -0.15670048
C       10.81602263      -5.84670552      -0.50367066
C       10.91862622      -6.09545450      -1.99654238
C        6.07193160      -6.21220110       0.51630286
N        5.88117608      -7.53642587       0.13621543
C        4.72064068      -8.28455856       0.24303610
O        3.65744374      -7.95734873       0.75505962
C        4.87116837      -9.63876927      -0.40580150
S        4.79652916      -5.28305625       1.11545376
C        5.76931069      -3.88235380       1.31725202
H        1.38849939      -2.82655875       1.81935819
H        1.76335554      -1.42653433       2.84053820
H        3.59057699      -0.80837084       1.11948873
H        3.29780607      -2.38529058       0.35453348
H        8.36310811      -1.02412195       1.65099958
H        9.03896640      -3.15628078       0.70490052
H       11.00252691      -6.75923149       0.07394202
H       11.57703020      -5.11707387      -0.20563858
H       10.21787747      -6.87225401      -2.31595412
H       11.93005672      -6.41448845      -2.26466661
H       10.67118098      -5.18972328      -2.55892616
H        6.70994110      -8.00258771      -0.23248472
H        5.81208898     -10.11097910      -0.10997217
H        4.84133429      -9.52202792      -1.49294570
H        4.04752351     -10.28800527      -0.09518739
C       -0.00445707       0.01189536      -1.78238275
H       -0.66409135       0.67374010      -2.43557963
H        0.65740317      -0.63156657      -2.45157240
C       -0.90989263      -0.90692880      -0.91072765
C        0.90977584       0.90977584      -0.90977584
C       -0.00465871       1.77757030       0.00794375
H       -0.66225468       2.44313916      -0.64384735
H        0.64322798       2.43503045       0.67728295
C       -1.78241447       0.00034974      -0.00472694
H       -2.45427497      -0.65498947       0.64260836
H       -2.43311707       0.67328779      -0.65473579
C       -0.91132561       0.90220522       0.91563759
C       -0.01476271      -0.02253852       1.78660255
H       -0.67934791      -0.69751639       2.42135241
H        0.63392994       0.61504881       2.47327442
C        0.01484550      -1.77751727      -0.01636693
H        0.67870853      -2.42144646      -0.68295456
H       -0.62264859      -2.45592969       0.64226336
C        1.78714474       0.01002794       0.00389507
H        2.44202412       0.67113390       0.66197326
H        2.45385902      -0.65136977      -0.64189061
C        0.91606151      -0.90478549       0.90901405
