86
Properties=species:S:1:pos:R:3 pbc="F F F"
O        5.86687166       0.77246920      -2.30244190
C        5.42344457       1.77894843      -2.83834450
C        4.00965578       2.17966762      -2.69461097
C        3.13664642       1.41008552      -1.92973340
C        1.79988565       1.79988565      -1.79988565
C        1.30626117       2.95642519      -2.44147373
C       -0.13640668       3.36060443      -2.27326108
C        2.22011121       3.72680112      -3.18899528
Br       1.73435647       5.34878562      -4.05927228
C        3.55986605       3.33870442      -3.32153727
H        6.06350824       2.43265985      -3.45454769
H        3.50262120       0.51245712      -1.43382289
H       -0.46910084       4.09456212      -3.01001883
H       -0.29136250       3.78635451      -1.27676160
H       -0.80075874       2.50105519      -2.40957671
H        4.24659236       3.94498639      -3.90815049
O       -5.90904098      -0.88288696      -2.14985482
C       -5.45253749      -1.85898319      -2.72921681
C       -4.02374389      -2.22035966      -2.63983081
C       -3.15097241      -1.44747434      -1.87801859
C       -1.79988565      -1.79988565      -1.79988565
C       -1.29200941      -2.92123379      -2.49091689
C        0.16648846      -3.28591033      -2.37803696
C       -2.20503002      -3.69667655      -3.23420104
Br      -1.69819748      -5.27650019      -4.16771670
C       -3.55913999      -3.34597875      -3.31498900
H       -6.09146627      -2.51339037      -3.34585914
H       -3.52808664      -0.57657400      -1.34424056
H        0.49812777      -3.98715853      -3.14644934
H        0.36441991      -3.73610896      -1.40006456
H        0.80055671      -2.40277542      -2.50765444
H       -4.24519159      -3.95530506      -3.89923259
O       -0.36998810       5.59803440       2.97376026
C       -1.46329672       5.21260501       3.36483577
C       -2.00775541       3.89482701       2.98135195
C       -1.27456275       3.04612398       2.15577862
C       -1.79988565       1.79988565       1.79988565
C       -3.07151575       1.38313592       2.24950843
C       -3.60760906       0.02858006       1.86126971
C       -3.77852995       2.25466348       3.10271418
Br      -5.47338394       1.81758191       3.85144851
C       -3.25528440       3.50414564       3.46067769
H       -2.09172757       5.83578252       4.02320569
H       -0.29464031       3.35713046       1.79713043
H       -4.68078344      -0.07753430       2.03223096
H       -3.09473189      -0.75333185       2.43035357
H       -3.47208689      -0.15215811       0.78994438
H       -3.82063217       4.16352996       4.11556711
O        0.27340181      -5.49025442       3.17812653
C        1.39539398      -5.13399826       3.51134525
C        1.97423787      -3.85462985       3.05506663
C        1.24179030      -3.00964377       2.22503128
C        1.79988565      -1.79988565       1.79988565
C        3.10346006      -1.41721987       2.18348017
C        3.67517130      -0.10097870       1.72130883
C        3.80999573      -2.28289336       3.04301852
Br       5.54884608      -1.88533050       3.70823778
C        3.25393276      -3.49589379       3.47028119
H        2.02521929      -5.75603647       4.16946002
H        0.23715526      -3.29486684       1.91687911
H        4.75758393      -0.03124329       1.84665289
H        3.21572272       0.72198524       2.27801613
H        3.50408814       0.04382791       0.64961293
H        3.81924524      -4.15170280       4.12878120
C       -0.00445707       0.01189536      -1.78238275
H       -0.66409135       0.67374010      -2.43557963
H        0.65740317      -0.63156657      -2.45157240
C       -0.90989263      -0.90692880      -0.91072765
C        0.90977584       0.90977584      -0.90977584
C       -0.00465871       1.77757030       0.00794375
H       -0.66225468       2.44313916      -0.64384735
H        0.64322798       2.43503045       0.67728295
C       -1.78241447       0.00034974      -0.00472694
H       -2.45427497      -0.65498947       0.64260836
H       -2.43311707       0.67328779      -0.65473579
C       -0.91132561       0.90220522       0.91563759
C       -0.01476271      -0.02253852       1.78660255
H       -0.67934791      -0.69751639       2.42135241
H        0.63392994       0.61504881       2.47327442
C        0.01484550      -1.77751727      -0.01636693
H        0.67870853      -2.42144646      -0.68295456
H       -0.62264859      -2.45592969       0.64226336
C        1.78714474       0.01002794       0.00389507
H        2.44202412       0.67113390       0.66197326
H        2.45385902      -0.65136977      -0.64189061
C        0.91606151      -0.90478549       0.90901405
