133
Properties=species:S:1:pos:R:3 pbc="F F F"
C        0.00000000       0.00000000       0.00000000
C        0.88364535       0.88364535      -0.88364535
C        0.47519906       2.18471414      -1.17741433
C        1.27753208       2.98796556      -1.98424801
C        2.48111042       2.48678406      -2.48673702
C        2.90256264       1.18258281      -2.19337534
C        4.16275647       0.62257400      -2.70789623
H        4.37606752      -0.41244073      -2.44965977
N        4.95930946       1.35253843      -3.51710299
C        6.15078197       0.59450979      -3.99127672
C        5.82869393      -0.42267821      -5.12091648
N        7.05381802      -1.08373610      -5.64732898
C        6.74573727      -2.08991625      -6.49367717
H        5.72283694      -2.37645756      -6.72544581
C        7.80503081      -2.86659646      -7.15303521
C        9.12561558      -2.41027449      -7.24866196
C       10.10183393      -3.16294041      -7.90705714
C        9.76480244      -4.38876401      -8.47798090
C        8.45238923      -4.85074968      -8.38552050
Br       7.99425906      -6.51863448      -9.15563517
C        7.47619470      -4.09786709      -7.73304292
C        2.08506967       0.38235346      -1.38556226
H       -0.45861750       2.57597931      -0.79005057
H        0.97971979       4.00104825      -2.23275310
H        3.11025749       3.10616597      -3.12364560
H        6.66778055       0.07833698      -3.16925887
H        6.88701613       1.31091611      -4.38203059
H        5.29968820       0.11098192      -5.92371810
H        5.11894361      -1.16162805      -4.72126409
H        9.37852940      -1.45116727      -6.79922738
H       11.11588211      -2.78250652      -7.96501849
H       10.52506700      -4.97133168      -8.98599484
H        6.45495265      -4.45824421      -7.65664113
H        2.39972638      -0.63266575      -1.16176601
C       -0.88364535      -0.88364535      -0.88364535
C       -0.56371178      -2.23222517      -1.04139058
C       -1.36577519      -3.03584589      -1.84812456
C       -2.48115065      -2.48721654      -2.48626430
C       -2.81371373      -1.13455805      -2.33024901
C       -3.97950927      -0.52412949      -2.98958795
H       -4.12501540       0.54214180      -2.83041296
N       -4.76953736      -1.25557867      -3.80383485
C       -5.85364927      -0.45033042      -4.43258878
C       -5.36194647       0.44133804      -5.60632377
N       -6.48355931       1.14847457      -6.28232615
C       -6.02848118       2.05390215      -7.17491916
H       -4.97046657       2.24059227      -7.34195089
C       -6.96546835       2.85207559      -7.97807679
C       -8.30821856       2.49230222      -8.14808672
C       -9.16474292       3.26030671      -8.94151445
C       -8.68377376       4.40469589      -9.57494145
C       -7.34842664       4.77046094      -9.40919436
Br      -6.69496376       6.32813659     -10.26443258
C       -6.49148884       4.00174965      -8.62163134
C       -1.99691550      -0.33502430      -1.52104559
H        0.30166210      -2.66049646      -0.54857802
H       -1.13523322      -4.08601499      -1.99227294
H       -3.10888660      -3.10730857      -3.12387390
H       -6.38750415       0.17081002      -3.69868228
H       -6.61480378      -1.13806143      -4.82709762
H       -4.81909795      -0.19649833      -6.31879193
H       -4.62590983       1.15424600      -5.20691583
H       -8.67403173       1.59630906      -7.64886684
H      -10.19950523       2.95549386      -9.05438270
H       -9.35148650       4.99962696     -10.18787062
H       -5.45266964       4.28761927      -8.48829920
H       -2.24213118       0.71630442      -1.40299988
C       -0.88364535       0.88364535       0.88364535
C       -0.33617981       2.01802478       1.48312295
C       -1.13922927       2.82052636       2.28999002
C       -2.48128142       2.48570304       2.48764704
C       -3.04191997       1.35072066       1.88588016
C       -4.45051976       0.96787226       2.07483469
H       -4.77325535       0.04797627       1.59205494
N       -5.26016344       1.69792326       2.87086417
C       -6.62619059       1.11661404       2.99376384
C       -6.69394031      -0.11098588       3.94397777
N       -8.08704580      -0.60030985       4.13067494
C       -8.11224297      -1.76919984       4.80645506
H       -7.21215079      -2.28001770       5.13969208
C       -9.38880156      -2.42358269       5.12625068
C      -10.61275999      -1.74368348       5.09492655
C      -11.80484916      -2.39059872       5.43170022
C      -11.78434274      -3.73361334       5.80328992
C      -10.56981104      -4.41793576       5.83528478
Br     -10.54105331      -6.24411594       6.33432238
C       -9.37884559      -3.77175374       5.50427869
C       -2.22351974       0.54839348       1.08107216
H        0.70498091       2.27974104       1.33265224
H       -0.73631858       3.70453198       2.77267058
H       -3.11348133       3.10415194       3.12243580
H       -7.05172700       0.84764226       2.01600714
H       -7.29931551       1.88897177       3.39167554
H       -6.25029060       0.17569177       4.90840584
H       -6.04836154      -0.89866566       3.52888377
H      -10.61783653      -0.69451555       4.80326853
H      -12.73692288      -1.83696077       5.39843197
H      -12.71123989      -4.23317992       6.06167020
H       -8.43305653      -4.30439865       5.52469169
H       -2.64779114      -0.33821208       0.61924758
C        0.88364535      -0.88364535       0.88364535
C        0.32786654      -1.99910709       1.51035390
C        1.13098732      -2.80154732       2.31721101
C        2.48131441      -2.48559934       2.48771775
C        3.05023499      -1.36978734       1.85849846
C        4.46772325      -1.00705656       2.01844689
H        4.79728711      -0.10046296       1.51553650
N        5.27842607      -1.73734784       2.81317696
C        6.65546819      -1.17657560       2.90452469
C        6.75852922       0.06489672       3.83329969
N        8.16220534       0.53429227       3.98949783
C        8.21728665       1.71334640       4.64555795
H        7.33111516       2.24413245       4.98484248
C        9.50928420       2.35180914       4.93399449
C       10.72145569       1.65154730       4.89409466
C       11.92916377       2.28420072       5.20098760
C       11.93637830       3.63318209       5.55082311
C       10.73371328       4.33772246       5.59116923
Br      10.74254759       6.17192986       6.06064203
C        9.52723485       3.70587657       5.29001225
C        2.23179838      -0.56723698       1.05395001
H       -0.71969844      -2.24613316       1.38097766
H        0.72184599      -3.67094908       2.82072608
H        3.11377820      -3.10401017       3.12228070
H        7.06921790      -0.93039017       1.91576833
H        7.32248923      -1.95334008       3.30413352
H        6.32616760      -0.19890807       4.80931255
H        6.11901258       0.85625149       3.41581857
H       10.70485697       0.59787519       4.61960773
H       12.85152944       1.71491396       5.16177861
H       12.87530755       4.12160447       5.78602709
H        8.59060887       4.25419330       5.31693399
H        2.66267812       0.30475026       0.57089879
