158
Properties=species:S:1:pos:R:3 pbc="F F F"
O        2.39940747       0.39017407      -7.79567955
C        2.66811603       1.58804804      -7.84129199
C        1.74138001       2.61478223      -7.18473248
N        1.75829498       2.45561774      -5.74864107
C        2.70277740       3.07877605      -4.96663836
O        3.53933995       3.84255212      -5.44885521
C        2.61297360       2.76117921      -3.55726599
C        3.33499385       3.21843907      -2.47096370
C        2.79185304       2.58814942      -1.32385287
C        1.77737020       1.77737020      -1.77737020
O        1.65953480       1.87271024      -3.12847039
N        3.80340998       2.15887795      -8.39190511
C        4.82291052       1.51056862      -9.11893672
C        4.78836010       0.16397751      -9.47574925
C        5.84751579      -0.40608578     -10.18852161
C        6.94795120       0.36844590     -10.56075718
C        6.99730054       1.73045410     -10.23488492
C        8.15991981       2.60601166     -10.61095642
C        5.92598612       2.28522852      -9.50872648
H        0.72108686       2.43448989      -7.53663115
H        2.02078068       3.63830126      -7.45433268
H        1.22446316       1.70162749      -5.32782916
H        4.14754185       3.93145784      -2.51224304
H        3.10207815       2.71407643      -0.29571003
H        3.96737493       3.13587565      -8.17060193
H        3.95343526      -0.47752718      -9.21204595
H        5.80114449      -1.46232059     -10.44325789
H        7.97096252       3.65455567     -10.35664499
H        8.34082690       2.56763986     -11.68997226
H        9.06080951       2.29223626     -10.07414887
H        5.96269404       3.34010926      -9.24330386
C        8.01214599      -0.28640920     -11.27647658
C        8.90340912      -0.83485036     -11.87589157
Br      10.34450622      -1.72163331     -12.84509492
O       -7.23289984      -3.76759266       0.41523141
C       -7.46549953      -3.84329715      -0.78865939
C       -7.17822616      -2.65382873      -1.70883983
N       -5.75491259      -2.41798039      -1.78966081
C       -4.96640059      -3.08020301      -2.70158822
O       -5.44595839      -3.85993686      -3.52485203
C       -3.55549701      -2.77179537      -2.60412641
C       -2.47626923      -3.18659893      -3.36152847
C       -1.33176887      -2.54064302      -2.83144344
C       -1.77737020      -1.77737020      -1.77737020
O       -3.12235703      -1.90939842      -1.62895997
N       -7.92574046      -4.95647912      -1.47197348
C       -8.33948012      -6.18833358      -0.92460216
C       -8.42979342      -6.44108846       0.44279501
C       -8.83847955      -7.69594254       0.90447047
C       -9.17113195      -8.70802534       0.00200300
C       -9.11135809      -8.47309306      -1.37818841
C       -9.45724368      -9.52980581      -2.38983841
C       -8.68871977      -7.20634751      -1.82487385
H       -7.64842179      -1.76359896      -1.28018714
H       -7.59212961      -2.81133836      -2.70994664
H       -5.28785581      -1.94152017      -1.02454383
H       -2.52315764      -3.86595590      -4.20212920
H       -0.31111727      -2.62161273      -3.17913461
H       -7.87418171      -4.91478688      -2.48488391
H       -8.18509910      -5.68550481       1.18264989
H       -8.88809814      -7.87068374       1.97670008
H       -9.44449656      -9.12864612      -3.40902050
H      -10.46487121      -9.91985773      -2.21371007
H       -8.73175353     -10.34837421      -2.34706690
H       -8.63005568      -7.02040505      -2.89564644
C       -9.56545025      -9.98199961       0.54523650
C       -9.89569182     -11.04895307       1.00019455
Br     -10.42966452     -12.77412656       1.73582325
O       -6.24647595       5.19023860      -0.85145347
C       -6.70559732       5.10689329       0.28496545
C       -6.81985682       3.74531582       0.97572207
N       -5.50472967       3.21135473       1.24646939
C       -4.82015685       3.53263553       2.39539944
O       -5.31954621       4.24320413       3.26799694
C       -3.49260205       2.96153446       2.47728229
C       -2.53800108       3.01072992       3.47566562
C       -1.43540634       2.24251126       3.02593772
C       -1.77737020       1.77737020       1.77737020
O       -3.02070433       2.20661343       1.43339766
N       -7.10101157       6.15859260       1.09458888
C       -7.17818100       7.52382133       0.75041353
C       -6.94091668       8.01792258      -0.53075240
C       -7.02695284       9.38974364      -0.78674485
C       -7.36165266      10.28057639       0.23492524
C       -7.62796088       9.80776793       1.52691074
C       -7.99031733      10.72582031       2.66075025
C       -7.52740942       8.42415681       1.76837490
H       -7.33578090       3.05680586       0.29962113
H       -7.39810378       3.81252130       1.90278953
H       -4.97792071       2.78578655       0.49021254
H       -2.64098445       3.53256445       4.41769383
H       -0.50955163       2.05150792       3.55080505
H       -7.26686946       5.93600742       2.07097564
H       -6.68095558       7.36482302      -1.35782457
H       -6.82445064       9.75022013      -1.79258897
H       -8.25583818      10.16371193       3.56261308
H       -8.85904493      11.33900723       2.40038685
H       -7.14347027      11.37267375       2.91105061
H       -7.72279361       8.05127011       2.77204345
C       -7.41381222      11.68170027      -0.09329913
C       -7.45749585      12.85514152      -0.36818704
Br      -7.52812858      14.75249679      -0.81265754
O        2.97897579      -0.00314746       7.60313783
C        3.16116887      -1.21199581       7.72429138
C        2.11158688      -2.20715028       7.22215755
N        2.02546310      -2.15645694       5.78063375
C        2.85580140      -2.90916834       4.98322207
O        3.66944241      -3.69957465       5.46173022
C        2.67744034      -2.69048441       3.56349405
C        3.27459791      -3.28301182       2.46678690
C        2.68965901      -2.69789321       1.31630311
C        1.77737020      -1.77737020       1.77737020
O        1.76110326      -1.76284102       3.13677114
N        4.29149479      -1.82940619       8.23329208
C        5.41094098      -1.21262773       8.82884715
C        5.50465324       0.15510374       9.07853735
C        6.65659511       0.68987935       9.66323586
C        7.72296163      -0.14042640      10.01376626
C        7.64529184      -1.52237790       9.79496981
C        8.76631006      -2.45779262      10.15278522
C        6.48132464      -2.04197398       9.19664251
H        1.13879184      -1.92041757       7.63299848
H        2.33518985      -3.22697339       7.55125138
H        1.51693556      -1.39541866       5.34156559
H        4.03290040      -4.05364407       2.50469827
H        2.90660957      -2.92386463       0.28139040
H        4.36457703      -2.83005802       8.07921746
H        4.70105378       0.83998958       8.82688982
H        6.70893660       1.76237676       9.83552195
H        8.48064050      -3.50381697       9.99770570
H        9.03516426      -2.35432358      11.20895117
H        9.64216955      -2.25752632       9.52749876
H        6.41862373      -3.11314360       9.01433984
C        8.88641696       0.47845271      10.59424911
C        9.86081080       0.99676396      11.08040349
Br      11.43632323       1.83482942      11.86647402
C       -0.00445707       0.01189536      -1.78238275
H       -0.66409135       0.67374010      -2.43557963
H        0.65740317      -0.63156657      -2.45157240
C       -0.90989263      -0.90692880      -0.91072765
C        0.90977584       0.90977584      -0.90977584
C       -0.00465871       1.77757030       0.00794375
H       -0.66225468       2.44313916      -0.64384735
H        0.64322798       2.43503045       0.67728295
C       -1.78241447       0.00034974      -0.00472694
H       -2.45427497      -0.65498947       0.64260836
H       -2.43311707       0.67328779      -0.65473579
C       -0.91132561       0.90220522       0.91563759
C       -0.01476271      -0.02253852       1.78660255
H       -0.67934791      -0.69751639       2.42135241
H        0.63392994       0.61504881       2.47327442
C        0.01484550      -1.77751727      -0.01636693
H        0.67870853      -2.42144646      -0.68295456
H       -0.62264859      -2.45592969       0.64226336
C        1.78714474       0.01002794       0.00389507
H        2.44202412       0.67113390       0.66197326
H        2.45385902      -0.65136977      -0.64189061
C        0.91606151      -0.90478549       0.90901405
