129
Properties=species:S:1:pos:R:3 pbc="F F F"
C        0.00000000       0.00000000       0.00000000
O        1.48950345      -0.51972995      -6.88577552
C        1.75821201       0.67814402      -6.93138797
C        0.83147598       1.70487821      -6.27482846
N        0.84839096       1.54571371      -4.83873705
C        1.79287337       2.16887203      -4.05673434
O        2.62943593       2.93264809      -4.53895118
C        1.70306957       1.85127519      -2.64736196
C        2.42508983       2.30853504      -1.56105968
C        1.88194901       1.67824540      -0.41394884
C        0.86746618       0.86746618      -0.86746618
O        0.74963077       0.96280621      -2.21856636
N        2.89350596       1.24897393      -7.48200109
C        3.91300649       0.60066460      -8.20903269
C        3.87845608      -0.74592652      -8.56584523
C        4.93761177      -1.31598981      -9.27861759
C        6.03804718      -0.54145812      -9.65085316
Br       7.44141345      -1.40502331     -10.59468081
C        6.08739651       0.82055008      -9.32498089
C        7.25001579       1.69610764      -9.70105240
C        5.01608210       1.37532450      -8.59882246
H       -0.18881716       1.52458586      -6.62672712
H        1.11087666       2.72839723      -6.54442865
H        0.31455914       0.79172346      -4.41792513
H        3.23763783       3.02155382      -1.60233902
H        2.19217413       1.80417240       0.61419400
H        3.05747091       2.22597162      -7.26069791
H        3.04353123      -1.38743121      -8.30214192
H        4.89124046      -2.37222461      -9.53335387
H        7.06105850       2.74465165      -9.44674096
H        7.43092287       1.65773584     -10.78006823
H        8.15090548       1.38233223      -9.16424484
H        5.05279002       2.43020524      -8.33339984
O       -5.98018129      -3.42581307       1.55044535
C       -6.29915338      -3.43269865       0.36410803
C       -6.16999451      -2.16162456      -0.47956358
N       -4.77779679      -1.81122158      -0.64382334
C       -4.01669108      -2.34333471      -1.65845395
O       -4.50129031      -3.09673108      -2.50301382
C       -2.62825312      -1.93452963      -1.63892397
C       -1.58385713      -2.20920983      -2.50161759
C       -0.45109960      -1.51638491      -2.00665874
C       -0.86746618      -0.86746618      -0.86746618
O       -2.18399679      -1.11342083      -0.63358573
N       -6.72979418      -4.52623057      -0.36845623
C       -7.01050331      -5.82248370       0.11028323
C       -6.97642917      -6.17892928       1.45698366
C       -7.25708990      -7.49151383       1.84836418
C       -7.58505662      -8.45891850       0.89653290
Br      -7.92619926     -10.22116466       1.51629297
C       -7.64921037      -8.12163977      -0.46207734
C       -7.99557764      -9.12661440      -1.52498379
C       -7.35436933      -6.79722674      -0.83863300
H       -6.66829454      -1.34348263       0.04928135
H       -6.64770652      -2.27843050      -1.45756553
H       -4.28836437      -1.35620097       0.12035760
H       -1.64674460      -2.82808511      -3.38670095
H        0.54277787      -1.49302267      -2.43190773
H       -6.75984784      -4.40810291      -1.37618969
H       -6.73010035      -5.46172648       2.23358488
H       -7.21097264      -7.74605438       2.90465730
H       -8.09050473      -8.65357667      -2.50836970
H       -8.95597359      -9.60505225      -1.30770110
H       -7.21209228      -9.88757850      -1.59781178
H       -7.39218262      -6.53095244      -1.89326003
O       -5.45174914       4.14230371      -1.73850383
C       -5.88733522       4.07236962      -0.59196084
C       -5.96178489       2.72258587       0.12681188
N       -4.63155602       2.21926125       0.38202445
C       -3.93152649       2.57592396       1.51102929
O       -4.42789522       3.29369212       2.37944787
C       -2.59176308       2.03202768       1.57791596
C       -1.61937973       2.11893597       2.55636885
C       -0.51081738       1.36332485       2.10000102
C       -0.86746618       0.86746618       0.86746618
O       -2.12528732       1.26605729       0.53965874
N       -6.28762506       5.13190198       0.20495394
C       -6.39797433       6.48843287      -0.16370342
C       -6.19494201       6.96190283      -1.45847005
C       -6.31259643       8.32657374      -1.73893061
C       -6.64500101       9.23059635      -0.72815514
Br      -6.75807217      11.06782853      -1.19482976
C       -6.87727469       8.77806667       0.57758612
C       -7.23571074       9.71095726       1.70050782
C       -6.74515837       7.40160442       0.84346627
H       -6.47702211       2.01127832      -0.52580460
H       -6.52339285       2.79678483       1.06352487
H       -4.11111058       1.78918056      -0.37608340
H       -1.71448154       2.65697739       3.49007174
H        0.42845696       1.20033950       2.61027000
H       -6.43040287       4.92526884       1.18846873
H       -5.93816211       6.29789008      -2.27781024
H       -6.13644064       8.67117321      -2.75524413
H       -7.47291844       9.16156780       2.61796487
H       -8.12105309      10.30221982       1.44545403
H       -6.39700677      10.37865002       1.92182577
H       -6.91399839       7.04469310       1.85770360
O        2.67227642       1.23775175       6.42102434
C        2.77187795       0.03067751       6.62654355
C        1.61253182      -0.91037688       6.28827395
N        1.41285112      -0.96190896       4.85808163
C        2.11589809      -1.83813439       4.06444726
O        2.90387960      -2.65401577       4.54313983
C        1.83903432      -1.71352819       2.64914421
C        2.29797467      -2.43411263       1.56259725
C        1.66678476      -1.89174099       0.41561749
C        0.86746618      -0.86746618       0.86746618
O        0.96360487      -0.74894840       2.21845008
N        3.89014410      -0.63688608       7.09745081
C        5.09796312      -0.07050766       7.55423300
C        5.31489624       1.29992029       7.68339883
C        6.54792258       1.78132716       8.13364413
C        7.57357218       0.89544729       8.46931732
Br       9.22259516       1.63884024       9.04731603
C        7.37403420      -0.48808952       8.37080376
C        8.44664691      -1.48234457       8.71818434
C        6.12908976      -0.95445769       7.90668161
H        0.70107060      -0.51479555       6.74662967
H        1.78458340      -1.91727266       6.68184648
H        0.92909137      -0.19719178       4.39792458
H        2.99641340      -3.25911784       1.60599942
H        1.78064440      -2.21227649      -0.61076836
H        3.87453474      -1.64893603       7.02066967
H        4.54747661       2.02726320       7.43802854
H        6.69509543       2.85589184       8.21316612
H        8.07100623      -2.51021288       8.67123199
H        8.80804891      -1.32168430       9.73899373
H        9.28104200      -1.40223562       8.01420495
H        5.97090289      -2.02761246       7.81787975
