150
Properties=species:S:1:pos:R:3 pbc="F F F"
O        2.39940747       0.39017407      -7.79567955
C        2.66811603       1.58804804      -7.84129199
C        1.74138001       2.61478223      -7.18473248
N        1.75829498       2.45561774      -5.74864107
C        2.70277740       3.07877605      -4.96663836
O        3.53933995       3.84255212      -5.44885521
C        2.61297360       2.76117921      -3.55726599
C        3.33499385       3.21843907      -2.47096370
C        2.79185304       2.58814942      -1.32385287
C        1.77737020       1.77737020      -1.77737020
O        1.65953480       1.87271024      -3.12847039
N        3.80340998       2.15887795      -8.39190511
C        4.82291052       1.51056862      -9.11893672
C        4.78836010       0.16397751      -9.47574925
C        5.84751579      -0.40608578     -10.18852161
C        6.94795120       0.36844590     -10.56075718
Br       8.35131748      -0.49511929     -11.50458483
C        6.99730054       1.73045410     -10.23488492
C        8.15991981       2.60601166     -10.61095642
C        5.92598612       2.28522852      -9.50872648
H        0.72108686       2.43448989      -7.53663115
H        2.02078068       3.63830126      -7.45433268
H        1.22446316       1.70162749      -5.32782916
H        4.14754185       3.93145784      -2.51224304
H        3.10207815       2.71407643      -0.29571003
H        3.96737493       3.13587565      -8.17060193
H        3.95343526      -0.47752718      -9.21204595
H        5.80114449      -1.46232059     -10.44325789
H        7.97096252       3.65455567     -10.35664499
H        8.34082690       2.56763986     -11.68997226
H        9.06080951       2.29223626     -10.07414887
H        5.96269404       3.34010926      -9.24330386
O       -6.73674200      -4.55985903       0.71133994
C       -7.09123761      -4.54147099      -0.46474746
C       -7.02525084      -3.24275900      -1.27288487
N       -5.64960848      -2.84556961      -1.46737569
C       -4.90430739      -3.32421123      -2.51967319
O       -5.39191453      -4.06676241      -3.37207034
C       -3.52856294      -2.87420067      -2.52865519
C       -2.50319709      -3.09151649      -3.42968304
C       -1.37683967      -2.37950796      -2.94750769
C       -1.77737020      -1.77737020      -1.77737020
O       -3.07837691      -2.06995890      -1.51237961
N       -7.51151440      -5.62551477      -1.21716388
C       -7.73925170      -6.94323259      -0.76993157
C       -7.65382721      -7.33799916       0.56373952
C       -7.88368686      -8.66945868       0.92319391
C       -8.21175319      -9.61791167      -0.04748943
Br      -8.48186080     -11.40719443       0.52827221
C       -8.32702722      -9.24285701      -1.39275532
C       -8.67574255     -10.22613257      -2.47501278
C       -8.08289842      -7.89958589      -1.73745682
H       -7.53115431      -2.45605554      -0.70499804
H       -7.52878187      -3.34514923      -2.23948352
H       -5.15082214      -2.39861241      -0.70448526
H       -2.57466311      -3.68567186      -4.33090777
H       -0.39744872      -2.31346894      -3.40094694
H       -7.57561152      -5.47871688      -2.21952411
H       -7.40527385      -6.63683989       1.35415972
H       -7.79804766      -8.95349033       1.96945620
H       -8.81437177      -9.72742883      -3.44036258
H       -9.61458815     -10.73969674      -2.24415412
H       -7.87275088     -10.96048689      -2.59395687
H       -8.16053618      -7.60362801      -2.78194298
O       -6.14366280       5.30896375      -0.86736547
C       -6.62332724       5.21447162       0.25965721
C       -6.77199234       3.84369346       0.92520891
N       -5.47074051       3.28305149       1.20876179
C       -4.80049588       3.57345621       2.37423971
O       -5.30269432       4.27773819       3.25031477
C       -3.48423498       2.97862504       2.46855877
C       -2.54602387       2.99495150       3.48342125
C       -1.44892790       2.21574534       3.03918208
C       -1.77737020       1.77737020       1.77737020
O       -3.00735405       2.23332753       1.42003385
N       -7.01481985       6.25907417       1.08029903
C       -7.06334925       7.63096811       0.75809850
C       -6.79616971       8.14227933      -0.51036218
C       -6.85494962       9.51944288      -0.74444088
C       -7.19202694      10.39865633       0.28647102
Br      -7.22261891      12.25420052      -0.11603641
C       -7.48807048       9.90894417       1.56562491
C       -7.85424572      10.81396731       2.70867487
C       -7.41472959       8.51998999       1.78522155
H       -7.28778590       3.17541302       0.22900897
H       -7.36468453       3.90522373       1.84350636
H       -4.93834917       2.86128289       0.45428774
H       -2.65625560       3.50266831       4.43231883
H       -0.53542802       2.00032920       3.57610739
H       -7.20091161       6.02307565       2.04986525
H       -6.53314536       7.49875311      -1.34394444
H       -6.62942342       9.89316338      -1.74050501
H       -8.14437252      10.24147619       3.59631447
H       -8.70807875      11.44606501       2.44429525
H       -7.00109302      11.44209231       2.98400930
H       -7.63330993       8.13377832       2.77901892
O        3.27843325       0.17013290       7.47696073
C        3.41869449      -1.03948105       7.63928053
C        2.31236358      -2.01042682       7.21810432
N        2.17065311      -2.01181382       5.78008686
C        2.93885784      -2.82725566       4.98207831
O        3.73998531      -3.63058853       5.46017344
C        2.71238590      -2.65638258       3.56265032
C        3.24195714      -3.31407100       2.46836849
C        2.63440007      -2.75070614       1.31874912
C        1.77737020      -1.77737020       1.77737020
O        1.81607112      -1.70992380       3.13472050
N        4.54389289      -1.68158096       8.12871920
C        5.70916362      -1.08762962       8.65562261
C        5.86532980       0.28384912       8.84660619
C        7.05945759       0.79420639       9.36470042
C        8.10626650      -0.06399754       9.70689025
Br       9.70018016       0.71893275      10.37953561
C        7.96680704      -1.44912788       9.54670464
C        9.06443188      -2.41418495       9.89827106
C        6.76071109      -1.94437215       9.01485789
H        1.36853289      -1.66941572       7.65425928
H        2.50956049      -3.02496513       7.57888899
H        1.67461708      -1.24849298       5.33080975
H        3.97096554      -4.11239382       2.50788337
H        2.80092185      -3.02481610       0.28612665
H        4.57220892      -2.68954074       8.01210285
H        5.07924535       0.99014855       8.59885723
H        7.15986407       1.86958384       9.49180157
H        8.73276358      -3.45313383       9.79626578
H        9.37910440      -2.28100608      10.93832853
H        9.92162959      -2.27331818       9.23224687
H        6.64961150      -3.01839470       8.87810096
C       -0.00445707       0.01189536      -1.78238275
H       -0.66409135       0.67374010      -2.43557963
H        0.65740317      -0.63156657      -2.45157240
C       -0.90989263      -0.90692880      -0.91072765
C        0.90977584       0.90977584      -0.90977584
C       -0.00465871       1.77757030       0.00794375
H       -0.66225468       2.44313916      -0.64384735
H        0.64322798       2.43503045       0.67728295
C       -1.78241447       0.00034974      -0.00472694
H       -2.45427497      -0.65498947       0.64260836
H       -2.43311707       0.67328779      -0.65473579
C       -0.91132561       0.90220522       0.91563759
C       -0.01476271      -0.02253852       1.78660255
H       -0.67934791      -0.69751639       2.42135241
H        0.63392994       0.61504881       2.47327442
C        0.01484550      -1.77751727      -0.01636693
H        0.67870853      -2.42144646      -0.68295456
H       -0.62264859      -2.45592969       0.64226336
C        1.78714474       0.01002794       0.00389507
H        2.44202412       0.67113390       0.66197326
H        2.45385902      -0.65136977      -0.64189061
C        0.91606151      -0.90478549       0.90901405
