122
Properties=species:S:1:pos:R:3 pbc="F F F"
C        1.79129713       1.79129713      -1.79129713
C        2.90324970       1.24203230      -2.42495026
C        3.71113335       2.05227548      -3.23112402
C        3.42120633       3.41430421      -3.41346440
N        4.23530591       4.22331281      -4.22759258
C        3.94095164       5.47237358      -4.34549176
N        2.88349727       6.08458393      -3.72283675
C        2.63473918       7.50010602      -3.93861883
C        1.67545304       7.63662769      -5.11222291
O        2.04282952       7.63768665      -6.28256080
N        0.34905641       7.65583612      -4.78407402
C        1.98045768       5.36211504      -2.96228886
O        0.95190729       5.84429984      -2.49276864
C        2.29531565       3.93376957      -2.76525703
C        1.47722023       3.13608287      -1.95570984
H        3.14242930       0.18920545      -2.29500512
H        4.55756232       6.13312523      -4.97652589
H        3.56427587       8.02515478      -4.18211765
H        2.20212678       7.95597088      -3.04152215
H        0.05232316       7.25742319      -3.89461453
H       -0.30703599       7.59796195      -5.55265797
H        0.60845235       3.56692671      -1.46306770
C        4.84823328       1.43940861      -3.86751852
C        5.80055446       0.92613261      -4.40049892
Br       7.34037728       0.09620872      -5.26228315
C       -1.79129713      -1.79129713      -1.79129713
C       -2.75826665      -1.20658628      -2.60537933
C       -3.56660714      -2.01659904      -3.41132667
C       -3.42120827      -3.41348070      -3.41428597
N       -4.23470660      -4.22255628      -4.22894842
C       -4.07842809      -5.50077406      -4.17961484
N       -3.17151756      -6.14321312      -3.37618726
C       -3.06954735      -7.59252610      -3.41139058
C       -2.01504628      -7.96599219      -4.44326517
O       -2.25505377      -8.06598571      -5.64203749
N       -0.74194262      -8.08569039      -3.96133354
C       -2.27473333      -5.43523208      -2.59489618
O       -1.36500476      -5.96423016      -1.95974085
C       -2.43850145      -3.96851789      -2.58732290
C       -1.62190660      -3.17158066      -1.77552568
H       -2.88438465      -0.12652879      -2.61572644
H       -4.69871115      -6.16266901      -4.80583328
H       -4.02359618      -8.04201250      -3.70593961
H       -2.79011848      -7.98270602      -2.42679532
H       -0.49550576      -7.61889620      -3.08995892
H       -0.00653576      -8.18775582      -4.64929236
H       -0.86635881      -3.63038280      -1.14170514
C       -4.55064793      -1.36676226      -4.23775022
C       -5.37478209      -0.82252396      -4.92987994
Br      -6.70733733       0.05746335      -6.04899517
C       -1.79129713       1.79129713       1.79129713
C       -1.28956733       2.99118277       2.28948215
C       -2.09865734       3.79693323       3.09894228
C       -3.41188684       3.41673455       3.42035353
N       -4.22172017       4.23235974       4.23213139
C       -5.41201803       3.82930243       4.51749652
N       -5.95558048       2.64485918       4.09047829
C       -7.31682713       2.29569921       4.46093770
C       -8.24779381       2.80602368       3.37048616
O       -8.67211714       3.95637923       3.33458061
N       -8.50604867       1.92182905       2.36108882
C       -5.26906765       1.80833321       3.22746072
O       -5.76439399       0.80409280       2.72048899
C       -3.88606620       2.20707117       2.90120488
C       -3.08900969       1.39014153       2.08986171
H       -0.27501530       3.30116536       2.05045921
H       -6.07228558       4.44501760       5.14991026
H       -7.59463993       2.76788445       5.40902391
H       -7.41997351       1.21060764       4.56903867
H       -7.85451900       1.15686573       2.19297615
H       -9.00015142       2.28681568       1.55661684
H       -3.48354730       0.45421225       1.70068720
C       -1.53729492       5.02930908       3.58855640
C       -1.06715390       6.06142387       3.99860822
Br      -0.30697563       7.73026617       4.66162734
C        1.79129713      -1.79129713       1.79129713
C        1.24028120      -2.89885607       2.43109498
C        2.04967174      -3.70460040       3.24026070
C        3.41223731      -3.41602035       3.42071727
N        4.22177540      -4.23144844       4.23298745
C        5.46096428      -3.91232491       4.38552779
N        6.05849530      -2.81803908       3.81438357
C        7.47053161      -2.56053491       4.04239751
C        8.25865738      -3.23616885       2.92947741
O        8.58446161      -4.41835382       2.96026154
N        8.49789904      -2.46185090       1.82921661
C        5.36860763      -1.99674805       2.93950590
O        5.89678566      -1.08359787       2.30859224
C        3.93485103      -2.29802909       2.76146213
C        3.13814220      -1.48238724       1.94848350
H        0.18712002      -3.13719681       2.30232304
H        6.12237602      -4.53059182       5.01424560
H        7.79130001      -2.97751797       5.00273031
H        7.66953636      -1.48344262       4.04664083
H        7.89771774      -1.65886677       1.64777637
H        8.88890755      -2.93203642       1.02263997
H        3.57105037      -0.61879890       1.44859749
C        1.43608649      -4.83989785       3.87917606
C        0.92220884      -5.79070947       4.41426768
Br       0.09131215      -7.32809143       5.27946557
C       -0.00445707       0.01189536      -1.78238275
H       -0.66409135       0.67374010      -2.43557963
H        0.65740317      -0.63156657      -2.45157240
C       -0.90989263      -0.90692880      -0.91072765
C        0.90977584       0.90977584      -0.90977584
C       -0.00465871       1.77757030       0.00794375
H       -0.66225468       2.44313916      -0.64384735
H        0.64322798       2.43503045       0.67728295
C       -1.78241447       0.00034974      -0.00472694
H       -2.45427497      -0.65498947       0.64260836
H       -2.43311707       0.67328779      -0.65473579
C       -0.91132561       0.90220522       0.91563759
C       -0.01476271      -0.02253852       1.78660255
H       -0.67934791      -0.69751639       2.42135241
H        0.63392994       0.61504881       2.47327442
C        0.01484550      -1.77751727      -0.01636693
H        0.67870853      -2.42144646      -0.68295456
H       -0.62264859      -2.45592969       0.64226336
C        1.78714474       0.01002794       0.00389507
H        2.44202412       0.67113390       0.66197326
H        2.45385902      -0.65136977      -0.64189061
C        0.91606151      -0.90478549       0.90901405
