93
Properties=species:S:1:pos:R:3 pbc="F F F"
C        0.00000000       0.00000000       0.00000000
C        0.88139311       0.88139311      -0.88139311
C        1.99334567       0.33212827      -1.51504624
C        2.80122933       1.14237145      -2.32121999
Br       4.30234683       0.33330871      -3.16134223
C        2.51130231       2.50440018      -2.50356037
N        3.32540188       3.31340879      -3.31768855
C        3.03104762       4.56246956      -3.43558774
N        1.97359324       5.17467990      -2.81293272
C        1.72483515       6.59020200      -3.02871480
C        0.76554902       6.72672367      -4.20231888
O        1.13292550       6.72778263      -5.37265677
N       -0.56084762       6.74593210      -3.87416999
C        1.07055366       4.45221101      -2.05238484
O        0.04200327       4.93439582      -1.58286462
C        1.38541162       3.02386555      -1.85535301
C        0.56731620       2.22617884      -1.04580581
H        2.23252528      -0.72069857      -1.38510110
H        3.64765830       5.22322120      -4.06662187
H        2.65437185       7.11525076      -3.27221362
H        1.29222275       7.04606686      -2.13161813
H       -0.85758086       6.34751917      -2.98471051
H       -1.21694001       6.68805793      -4.64275395
H       -0.30145168       2.65702269      -0.55316367
C       -0.88139311      -0.88139311      -0.88139311
C       -1.88710166      -0.30216252      -1.65125601
C       -2.69532730      -1.11224043      -2.45725304
Br      -4.04836379      -0.26186701      -3.48676697
C       -2.51132112      -2.50377512      -2.50416662
N       -3.32497558      -3.31282188      -3.31870176
C       -3.13190073      -4.58692885      -3.31027533
N       -2.18490414      -5.22526202      -2.55103970
C       -2.04375690      -6.66953161      -2.63046345
C       -1.00920503      -6.98390061      -3.70148593
O       -1.28049995      -7.05736949      -4.89549546
N        0.27998419      -7.08051230      -3.25872636
C       -1.28617502      -4.51392240      -1.77505209
O       -0.34432273      -5.03414936      -1.18079162
C       -1.49034406      -3.05326378      -1.72102234
C       -0.67334019      -2.25617764      -0.90978303
H       -2.04342070       0.77372037      -1.62722747
H       -3.75119737      -5.24862584      -3.93767816
H       -2.99297737      -7.13774076      -2.91111810
H       -1.72557451      -7.07877006      -1.66556317
H        0.53815740      -6.63125487      -2.38155134
H        0.99798319      -7.14236918      -3.96948588
H        0.11246553      -2.71063320      -0.31056701
C       -0.88139311       0.88139311       0.88139311
C       -0.39501945       2.10177757       1.34372317
C       -1.20403077       2.90753736       2.15325264
Br      -0.48441447       4.56287121       2.74971209
C       -2.50190965       2.50700833       2.51034488
N       -3.31182560       3.32267228       3.32200134
C       -4.48709157       2.90108696       3.64092638
N       -5.01412652       1.69678003       3.25029932
C       -6.35964023       1.32731912       3.65679260
C       -7.32373468       1.79486731       2.57598958
O       -7.77306668       2.93512006       2.52517816
N       -7.58408961       0.88423605       1.59092882
C       -4.32809863       0.85656908       2.39048180
O       -4.81241269      -0.16831021       1.91516122
C       -2.96097353       1.27697826       2.02667839
C       -2.16379197       0.45975377       1.21575512
H        0.60752106       2.42765683       1.07679204
H       -5.14699189       3.51622985       4.27427963
H       -6.62763503       1.81366408       4.60053711
H       -6.43742916       0.24285866       3.78961991
H       -6.92008863       0.12959728       1.42496290
H       -8.10247294       1.22168042       0.78971850
H       -2.54636226      -0.49224347       0.85461589
C        0.88139311      -0.88139311       0.88139311
C        0.34069750      -2.01320496       1.48661773
C        1.15001620      -2.81894614       2.29585843
Br       0.35445651      -4.35135715       3.09118411
C        2.50223846      -2.50629249       2.51073191
N        3.31184394      -3.32177533       3.32287995
C        4.54067554      -2.98053970       3.50788967
N        5.12673463      -1.86247945       2.97199179
C        6.52808125      -1.58086949       3.23480122
C        7.35288808      -2.21669337       2.12501013
O        7.70270622      -3.39232388       2.13833481
N        7.59838666      -1.41472717       1.04614065
C        4.43789081      -1.03736640       2.09989229
O        4.95965201      -0.10053484       1.49907685
C        3.01472494      -1.36422813       1.88567711
C        2.21795326      -0.54825331       1.07309429
H       -0.70436839      -2.27037070       1.33092549
H        5.20185408      -3.59813971       4.13750758
H        6.83773294      -2.01122061       4.19288268
H        6.70433015      -0.50024339       3.26533420
H        6.98535406      -0.62060998       0.86868477
H        8.01564870      -1.85976926       0.23845390
H        2.64283402       0.33433411       0.60023477
