114
Properties=species:S:1:pos:R:3 pbc="F F F"
C        1.79129713       1.79129713      -1.79129713
C        2.90324970       1.24203230      -2.42495026
C        3.71113335       2.05227548      -3.23112402
Br       5.21225085       1.24321273      -4.07124625
C        3.42120633       3.41430421      -3.41346440
N        4.23530591       4.22331281      -4.22759258
C        3.94095164       5.47237358      -4.34549176
N        2.88349727       6.08458393      -3.72283675
C        2.63473918       7.50010602      -3.93861883
C        1.67545304       7.63662769      -5.11222291
O        2.04282952       7.63768665      -6.28256080
N        0.34905641       7.65583612      -4.78407402
C        1.98045768       5.36211504      -2.96228886
O        0.95190729       5.84429984      -2.49276864
C        2.29531565       3.93376957      -2.76525703
C        1.47722023       3.13608287      -1.95570984
H        3.14242930       0.18920545      -2.29500512
H        4.55756232       6.13312523      -4.97652589
H        3.56427587       8.02515478      -4.18211765
H        2.20212678       7.95597088      -3.04152215
H        0.05232316       7.25742319      -3.89461453
H       -0.30703599       7.59796195      -5.55265797
H        0.60845235       3.56692671      -1.46306770
C       -1.79129713      -1.79129713      -1.79129713
C       -2.88599565      -1.23544037      -2.44879623
C       -3.69393797      -2.04565826      -3.25493661
Br      -5.17100166      -1.22748867      -4.12821950
C       -3.42121690      -3.41419336      -3.41356467
N       -4.23524224      -4.22320344      -4.22776561
C       -3.95737775      -5.47792275      -4.32351649
N       -2.91792175      -6.09609242      -3.67690377
C       -2.68665881      -7.51800627      -3.86879895
C       -1.71277498      -7.68523225      -5.02629641
O       -2.06336088      -7.69801184      -6.20170425
N       -0.39162277      -7.71863842      -4.67870536
C       -2.01546393      -5.37565253      -2.91374511
O       -1.00083124      -5.86563123      -2.42251330
C       -2.31235905      -3.94024501      -2.74173819
C       -1.49443740      -3.14267804      -1.93189749
H       -3.11171494      -0.17752831      -2.33739662
H       -4.57442239      -6.13887442      -4.95391664
H       -3.62013633      -8.03318987      -4.11822210
H       -2.27357097      -7.96695088      -2.95909797
H       -0.10188786      -7.31165076      -3.79082226
H        0.27615965      -7.68130110      -5.43844249
H       -0.63914006      -3.57870705      -1.42059965
C       -1.79129713       1.79129713       1.79129713
C       -1.33874810       3.04900129       2.18248286
C       -2.14760029       3.85478872       2.99214384
Br      -1.47521554       5.56188119       3.48961311
C       -3.41168664       3.41726163       3.42002667
N       -4.22177573       4.23298951       4.23144605
C       -5.36412182       3.77781525       4.61687993
N       -5.85502441       2.53754900       4.29834453
C       -7.16597036       2.13119370       4.77629997
C       -8.19225581       2.51278965       3.71925819
O       -8.69128599       3.63061328       3.64117770
N       -8.45361375       1.55131453       2.78403826
C       -5.16952792       1.69022715       3.44510650
O       -5.62884970       0.62722198       3.03290410
C       -3.83743253       2.15013485       3.00677487
C       -3.03995967       1.33236170       2.19669157
H       -0.36264809       3.40380893       1.86018285
H       -6.02320307       4.39190864       5.25210173
H       -7.41571738       2.64584817       5.70998275
H       -7.19217702       1.05108251       4.95636028
H       -7.76548428       0.81797583       2.62090077
H       -9.01805125       1.83305147       1.99248122
H       -3.39615833       0.35110284       1.89118559
C        1.79129713      -1.79129713       1.79129713
C        1.27902267      -2.97540653       2.31580305
C        2.08816978      -3.78115210       3.12521096
Br       1.33236228      -5.38615418       3.80819338
C        3.41194450      -3.41660326       3.42042717
N        4.22171916      -4.23219717       4.23229497
C        5.42238040      -3.84343033       4.49300626
N        5.97735098      -2.67431880       4.03924815
C        7.34941988      -2.34079690       4.38324725
C        8.25529881      -2.88228996       3.28671488
O        8.66127978      -4.03954465       3.26225255
N        8.51132522      -2.01785231       2.25978902
C        5.29038865      -1.84054158       3.17393136
O        5.79311712      -0.85206555       2.64379311
C        3.89649818      -2.22261062       2.87523345
C        3.09952410      -1.40590533       2.06358350
H        0.25621894      -3.27315200       2.09726893
H        6.08289791      -4.45958428       5.12473126
H        7.63470776      -2.80263391       5.33420662
H        7.47090590      -1.25591431       4.47279960
H        7.86908468      -1.24548646       2.08978974
H        8.98714268      -2.40282802       1.45361324
H        3.50227685      -0.48234036       1.65382955
C       -0.00445707       0.01189536      -1.78238275
H       -0.66409135       0.67374010      -2.43557963
H        0.65740317      -0.63156657      -2.45157240
C       -0.90989263      -0.90692880      -0.91072765
C        0.90977584       0.90977584      -0.90977584
C       -0.00465871       1.77757030       0.00794375
H       -0.66225468       2.44313916      -0.64384735
H        0.64322798       2.43503045       0.67728295
C       -1.78241447       0.00034974      -0.00472694
H       -2.45427497      -0.65498947       0.64260836
H       -2.43311707       0.67328779      -0.65473579
C       -0.91132561       0.90220522       0.91563759
C       -0.01476271      -0.02253852       1.78660255
H       -0.67934791      -0.69751639       2.42135241
H        0.63392994       0.61504881       2.47327442
C        0.01484550      -1.77751727      -0.01636693
H        0.67870853      -2.42144646      -0.68295456
H       -0.62264859      -2.45592969       0.64226336
C        1.78714474       0.01002794       0.00389507
H        2.44202412       0.67113390       0.66197326
H        2.45385902      -0.65136977      -0.64189061
C        0.91606151      -0.90478549       0.90901405
