126
Properties=species:S:1:pos:R:3 pbc="F F F"
N        4.79729632       8.84315177       0.87198912
C        3.85862985       7.93102513       0.48810793
O        3.19394176       7.32235632       1.31589940
C        3.73816032       7.75334354      -1.00496290
C        2.63846007       6.75867800      -1.35107794
N        2.63013120       6.53192917      -2.80208796
S        1.51082003       5.45012504      -3.44223133
O        0.26657680       5.66920978      -2.73427921
O        1.57353128       5.57378970      -4.87978828
C        2.15217303       3.86503878      -2.99034126
C        1.34121538       3.04948065      -2.18221332
C        1.79113655       1.79113655      -1.79113655
C        3.03970704       1.33263136      -2.19789385
C        3.84505294       2.14141595      -3.00365519
C        3.40811088       3.41221692      -3.40627362
Br       4.61472096       4.40440934      -4.48471554
H        5.38055688       9.35160768       0.22217993
H        4.92657997       8.99809773       1.86420171
H        4.70362035       7.40811183      -1.39451151
H        3.51938414       8.72743149      -1.45973742
H        1.66975012       7.15625336      -1.02781224
H        2.81259907       5.80696532      -0.83546861
H        2.78901237       7.31795508      -3.43245739
H        0.36031534       3.39315492      -1.85713137
H        3.39631263       0.35065068      -1.89596466
H        4.81905822       1.76728791      -3.31363045
N       -4.69238709      -8.90351563       0.82744374
C       -3.76778152      -7.97719417       0.44342863
O       -3.10072312      -7.37026903       1.27059348
C       -3.66542799      -7.78220498      -1.04883379
C       -2.58028342      -6.77201275      -1.39591983
N       -2.59012779      -6.52962977      -2.84439078
S       -1.48949896      -5.42894128      -3.48473616
O       -0.23537050      -5.64210094      -2.79259435
O       -1.56646911      -5.53784592      -4.92279423
C       -2.14288457      -3.85584534      -3.00882316
C       -1.33200698      -3.04025738      -2.20064499
C       -1.79113655      -1.79113655      -1.79113655
C       -3.04889383      -1.34186323      -2.17947518
C       -3.85420734      -2.15064297      -2.98527377
C       -3.40804689      -3.41223615      -3.40631837
Br      -4.61556756      -4.40582886      -4.48244942
H       -5.27717220      -9.41126614       0.17845371
H       -4.80923048      -9.07049293       1.81924742
H       -4.63870561      -7.44330572      -1.42423235
H       -3.44115767      -8.74892648      -1.51646890
H       -1.60391355      -7.16250306      -1.08739911
H       -2.75902178      -5.82783255      -0.86817868
H       -2.74739356      -7.31052332      -3.48150796
H       -0.34400713      -3.37674014      -1.88985436
H       -3.41272012      -0.36710485      -1.86310299
H       -4.83547615      -1.78379731      -3.28070312
N       -2.09429887       0.83037308       9.84378703
C       -2.25463885       0.52209415       8.52481405
O       -1.48303884      -0.23836363       7.95572347
C       -3.43173399       1.19795184       7.86678094
C       -3.57017180       0.76428092       6.41376328
N       -4.65494084       1.52685207       5.78235543
S       -4.99875752       1.24550971       4.15890916
O       -4.90138250      -0.18474610       3.95342940
O       -6.22004013       1.95339225       3.85367688
C       -3.66743346       2.03602217       3.30409744
C       -2.85657896       1.22782927       2.48850112
C       -1.79113655       1.79113655       1.79113655
C       -1.52424818       3.15233791       1.89364615
C       -2.33159529       3.95683888       2.70168991
C       -3.40858413       3.40597556       3.41204172
Br      -4.40642146       4.61590367       4.48152070
H       -2.69610336       1.46850320      10.34537808
H       -1.31489792       0.41045488      10.33512318
H       -3.29147084       2.28389079       7.93088206
H       -4.34199010       0.94165580       8.42290715
H       -3.79112927      -0.30824365       6.37093010
H       -2.63432566       0.94774616       5.87296119
H       -5.50380292       1.72266784       6.31295408
H       -3.05373037       0.16080423       2.39606703
H       -0.69380688       3.59801718       1.35110391
H       -2.10943169       5.02016767       2.77037722
N        2.06884424      -0.85232162       9.84729311
C        2.23203363      -0.53985857       8.52965485
O        1.45989349       0.22002600       7.96053119
C        3.41289029      -1.21052510       7.87305137
C        3.55420110      -0.77235342       6.42166148
N        4.64290272      -1.53006872       5.79117689
S        4.99050311      -1.24316213       4.16951115
O        4.88965994       0.18738907       3.96779493
O        6.21464160      -1.94672729       3.86574038
C        3.66384070      -2.03500662       3.30870576
C        2.85300712      -1.22680027       2.49310196
C        1.79113655      -1.79113655       1.79113655
C        1.52781443      -3.15337065       1.88904717
C        2.33515152      -3.95787361       2.69709895
C        3.40856699      -3.40598537       3.41204906
Br       4.40680250      -4.61611460       4.48092874
H        2.67103447      -1.49016775      10.34878241
H        1.28687374      -0.43599795      10.33760431
H        3.27552154      -2.29703280       7.93368934
H        4.32084364      -0.95323586       8.43247355
H        3.77224146       0.30090759       6.38248185
H        2.62040849      -0.95692806       5.87769646
H        5.49081450      -1.72498873       6.32362161
H        3.04739719      -0.15896553       2.40423890
H        0.70017304      -3.59985475       1.34290018
H        2.11580603      -5.02201551       2.76215504
C       -0.00445707       0.01189536      -1.78238275
H       -0.66409135       0.67374010      -2.43557963
H        0.65740317      -0.63156657      -2.45157240
C       -0.90989263      -0.90692880      -0.91072765
C        0.90977584       0.90977584      -0.90977584
C       -0.00465871       1.77757030       0.00794375
H       -0.66225468       2.44313916      -0.64384735
H        0.64322798       2.43503045       0.67728295
C       -1.78241447       0.00034974      -0.00472694
H       -2.45427497      -0.65498947       0.64260836
H       -2.43311707       0.67328779      -0.65473579
C       -0.91132561       0.90220522       0.91563759
C       -0.01476271      -0.02253852       1.78660255
H       -0.67934791      -0.69751639       2.42135241
H        0.63392994       0.61504881       2.47327442
C        0.01484550      -1.77751727      -0.01636693
H        0.67870853      -2.42144646      -0.68295456
H       -0.62264859      -2.45592969       0.64226336
C        1.78714474       0.01002794       0.00389507
H        2.44202412       0.67113390       0.66197326
H        2.45385902      -0.65136977      -0.64189061
C        0.91606151      -0.90478549       0.90901405
