170
Properties=species:S:1:pos:R:3 pbc="F F F"
C        1.79142060       1.79142060      -1.79142060
C        2.70123429       1.20466916      -2.66699152
C        3.50862119       2.01427817      -3.47173473
C        3.40973902       3.41285661      -3.41461144
C        2.48513720       3.98370395      -2.52715727
C        1.68067665       3.17748859      -1.71500744
C        4.24088401       4.25859091      -4.26266290
C        4.11692936       5.53999569      -4.76290612
C        5.28432718       5.79653237      -5.52030732
C        6.06486570       4.66472511      -5.42447760
O        5.42993561       3.72132170      -4.67107355
C        7.41163988       4.31727676      -5.94363803
N        7.29711864       3.58120988      -7.20284100
C        7.09354277       2.14251206      -7.08823933
C        7.28173456       4.32886647      -8.37948013
O        7.48115877       5.54442841      -8.38912776
C        7.05915712       3.69136944      -9.69563253
C        7.82683208       4.14034885     -10.76798890
N        7.72634034       3.65678476     -12.03220252
C        6.79859453       2.69358644     -12.23642167
C        5.96464281       2.21011509     -11.23819782
Br       4.69952975       0.86280480     -11.61299655
C        6.07976193       2.73081845      -9.95118613
H        2.79132171       0.12383922      -2.73347137
H        4.21325423       1.54373446      -4.15413800
H        2.39016975       5.06431124      -2.44766431
H        0.97657289       3.64125121      -1.02926897
H        3.28162939       6.20804095      -4.60839573
H        5.53978874       6.69633509      -6.06436662
H        7.96642502       3.71120090      -5.21864377
H        7.99481791       5.23278910      -6.09432881
H        6.02760130       1.94686296      -6.93920492
H        7.65230526       1.75288606      -6.23207574
H        7.44781294       1.62261184      -7.98024278
H        8.56770843       4.92709294     -10.63846121
H        6.74437492       2.32081618     -13.25492053
H        5.40482812       2.40187742      -9.16903450
C       -1.79142060      -1.79142060      -1.79142060
C       -1.58997771      -3.16894549      -1.81397176
C       -2.39739682      -3.97367416      -2.62356311
C       -3.41493651      -3.41226374      -3.41000682
C       -3.60252203      -2.02243516      -3.37104123
C       -2.79216594      -1.21294834      -2.56805839
C       -4.26686481      -4.25092738      -4.24434562
C       -5.54190405      -4.11924584      -4.75868128
C       -5.79930462      -5.28769230      -5.51416996
C       -4.65995473      -6.05907510      -5.43503858
O       -3.72907758      -5.43935018      -4.65390310
C       -4.27508092      -7.36041998      -6.03705378
N       -4.53235869      -8.45168153      -5.09712930
C       -3.48204540      -8.71955068      -4.12269807
C       -5.78876771      -9.05385243      -5.14746102
O       -6.61481197      -8.78045614      -6.01944685
C       -6.18764753     -10.08929293      -4.16921863
C       -6.90598726     -11.18393400      -4.64524858
N       -7.34567905     -12.20414702      -3.86550155
C       -7.07172531     -12.11304864      -2.54382868
C       -6.39457512     -11.04399763      -1.97438296
Br      -6.05415699     -11.00111218      -0.12006193
C       -5.96344719     -10.00372543      -2.79459388
H       -0.81252614      -3.62729223      -1.20881393
H       -2.23221385      -5.04897283      -2.62994000
H       -4.37360479      -1.55174780      -3.97679270
H       -2.95023017      -0.13776907      -2.55909383
H       -6.21098762      -3.28520624      -4.60187221
H       -6.69763588      -5.54136771      -6.06148686
H       -3.21545268      -7.36465535      -6.31616168
H       -4.84079970      -7.51899709      -6.96213903
H       -3.60088283      -8.03535231      -3.27743404
H       -2.50010271      -8.55932277      -4.57784157
H       -3.52207400      -9.75349688      -3.77509667
H       -7.15770290     -11.27535992      -5.70019975
H       -7.42940425     -12.94549316      -1.94521422
H       -5.47629966      -9.13675085      -2.36268953
C       -1.79142060       1.79142060       1.79142060
C       -1.90331286       3.15199355       1.51758855
C       -2.70973410       3.95732373       2.32757627
C       -3.41523282       3.41127214       3.41070211
C       -3.29029610       2.03775606       3.66794626
C       -2.47879540       1.22988546       2.86449182
C       -4.26738250       4.24655627       4.24819905
C       -5.36521190       4.00416027       5.05045901
C       -5.73639427       5.24552656       5.61924605
C       -4.83284795       6.17333719       5.14788326
O       -3.94453204       5.57394912       4.30384971
C       -4.64676017       7.62421991       5.40157459
N       -5.30852749       8.41156998       4.36107205
C       -4.53998508       8.64037296       3.14393612
C       -6.63735648       8.77115363       4.58157105
O       -7.20854321       8.55483218       5.65133956
C       -7.42914696       9.47074093       3.54627120
C       -8.27587997      10.49504330       3.96424656
N       -9.06727093      11.21714224       3.13091445
C       -9.02465702      10.88335004       1.82059557
C       -8.24006986       9.85512084       1.31776501
Br      -8.24139635       9.46013731      -0.52620256
C       -7.44502973       9.12133291       2.19540387
H       -1.37164512       3.59639598       0.68059120
H       -2.79151836       5.01831430       2.10129402
H       -3.81299117       1.58282817       4.50632596
H       -2.39069213       0.16972229       3.08667865
H       -5.84731375       3.04889112       5.20186120
H       -6.55395328       5.44792514       6.29861204
H       -3.58245585       7.88335976       5.43045409
H       -5.05590491       7.88069366       6.38533725
H       -4.65391962       7.77417236       2.48557719
H       -3.48120545       8.76740294       3.38865866
H       -4.87328647       9.54512191       2.63225919
H       -8.34573109      10.77338610       5.01414539
H       -9.66251702      11.48118089       1.17641372
H       -6.86268310       8.28290385       1.83015309
C        1.79142060      -1.79142060       1.79142060
C        3.12335121      -1.44572047       2.00382329
C        3.92890781      -2.25575911       2.80996717
C        3.41100413      -3.41095121       3.41525173
C        2.06590905      -3.74007051       3.19001886
C        1.25852691      -2.93637346       2.37827231
C        4.24543643      -4.24949181       4.26720958
C        3.98953112      -5.13149543       5.29880462
C        5.24002403      -5.64848544       5.71265740
C        6.18805949      -5.06805261       4.89795631
O        5.59037162      -4.20689920       4.02506005
C        7.66035483      -5.22405454       4.78814531
N        8.34108383      -4.18243502       5.55765067
C        8.53824701      -2.90841284       4.87763430
C        8.63510863      -4.46389063       6.89108190
O        8.45277355      -5.57804641       7.38389499
C        9.22109066      -3.44071422       7.78435422
C       10.21800182      -3.84984313       8.66732489
N       10.83903167      -3.02654638       9.54974957
C       10.42725047      -1.73797382       9.56337835
C        9.41748768      -1.24840755       8.74706049
Br       8.90888080       0.56552168       8.83197198
C        8.78778907      -2.11630673       7.85767071
H        3.54512646      -0.55255921       1.55094663
H        4.96708901      -1.97313895       2.97089872
H        1.63425981      -4.63466721       3.63321827
H        0.22128554      -3.21447062       2.21133692
H        3.01891869      -5.36847181       5.71067557
H        5.43606426      -6.36446287       6.49996332
H        7.98280776      -5.17124514       3.74221680
H        7.95322470      -6.21466652       5.15404459
H        7.62748403      -2.31041517       4.97576997
H        8.74221192      -3.07875163       3.81630350
H        9.38820076      -2.36630177       5.29616503
H       10.55669803      -4.88390525       8.69265929
H       10.94527558      -1.10085101      10.27398504
H        7.96383965      -1.76528791       7.24661249
C       -0.00445707       0.01189536      -1.78238275
H       -0.66409135       0.67374010      -2.43557963
H        0.65740317      -0.63156657      -2.45157240
C       -0.90989263      -0.90692880      -0.91072765
C        0.90977584       0.90977584      -0.90977584
C       -0.00465871       1.77757030       0.00794375
H       -0.66225468       2.44313916      -0.64384735
H        0.64322798       2.43503045       0.67728295
C       -1.78241447       0.00034974      -0.00472694
H       -2.45427497      -0.65498947       0.64260836
H       -2.43311707       0.67328779      -0.65473579
C       -0.91132561       0.90220522       0.91563759
C       -0.01476271      -0.02253852       1.78660255
H       -0.67934791      -0.69751639       2.42135241
H        0.63392994       0.61504881       2.47327442
C        0.01484550      -1.77751727      -0.01636693
H        0.67870853      -2.42144646      -0.68295456
H       -0.62264859      -2.45592969       0.64226336
C        1.78714474       0.01002794       0.00389507
H        2.44202412       0.67113390       0.66197326
H        2.45385902      -0.65136977      -0.64189061
C        0.91606151      -0.90478549       0.90901405
