101
Properties=species:S:1:pos:R:3 pbc="F F F"
C        0.00000000       0.00000000       0.00000000
C        0.88054260       0.88054260      -0.88054260
C        1.92602521       0.32007943      -1.60088463
C        2.73383985       1.13275086      -2.40970608
C        2.51822036       2.51812718      -2.51825383
C        1.45048918       3.05126263      -1.77438072
C        0.63859511       2.24455424      -0.96378316
N        3.34498119       3.34496661      -3.34501697
C        3.20586791       4.71278131      -3.49206367
O        2.42646931       5.51516046      -3.01023985
C        4.24283375       5.15788979      -4.41681570
C        4.53479517       6.42302262      -4.89332627
C        5.60658047       6.54254432      -5.78473901
C        6.34601254       5.40611168      -6.16860424
Br       7.78850005       5.60366353      -7.37553376
C        6.03359829       4.13797222      -5.67471805
C        4.96934621       4.05265090      -4.79572998
C        4.40096902       2.89468665      -4.11553073
O        4.87447259       1.78616927      -4.29154181
H        2.12961820      -0.74657047      -1.54686441
H        3.53423262       0.63104402      -2.94498135
H        1.20588118       4.10911730      -1.79520674
H       -0.17635339       2.69978699      -0.40634602
H        3.95328624       7.28699018      -4.58574397
H        5.86454105       7.52359160      -6.17984744
H        6.59221937       3.25209867      -5.95965743
C       -0.88054260      -0.88054260      -0.88054260
C       -2.23707578      -0.99787741      -0.61203607
C       -3.04396589      -1.80849119      -1.42383972
C       -2.51827439      -2.51814908      -2.51817790
C       -1.14030164      -2.37571484      -2.76011605
C       -0.32757273      -1.56673572      -1.95262407
N       -3.34501064      -3.34495987      -3.34499426
C       -2.90100764      -4.08307027      -4.42663497
O       -1.79965094      -4.22539916      -4.92681952
C       -4.05784339      -4.77544073      -4.98425512
C       -4.15273399      -5.63399568      -6.06441439
C       -5.41750175      -6.15128978      -6.36507226
C       -6.53691766      -5.79851276      -5.58529804
Br      -8.23187206      -6.51600627      -6.01981901
C       -6.41788233      -4.92973937      -4.49866686
C       -5.15513372      -4.43555959      -4.22703378
C       -4.70614003      -3.52392173      -3.18112464
O       -5.50173923      -3.07551348      -2.37493096
H       -2.68639614      -0.46748652       0.22397051
H       -4.09553119      -1.85683969      -1.15788710
H       -0.64461787      -2.88328004      -3.58230731
H        0.73315265      -1.48576524      -2.17716703
H       -3.27838079      -5.89412559      -6.65351401
H       -5.52905108      -6.83023323      -7.20869578
H       -7.26918923      -4.64727372      -3.88751253
C       -0.88054260       0.88054260       0.88054260
C       -0.55772692       1.07271648       2.21654586
C       -1.36967374       1.88313297       3.02349009
C       -2.51812781       2.51821811       2.51825546
C       -2.81443130       2.30086737       1.16083386
C       -2.00689352       1.49195136       0.34808764
N       -3.34495903       3.34500842       3.34499733
C       -4.49454001       3.98949582       2.92667706
O       -5.06854951       4.03009248       1.85322764
C       -5.02531675       4.71885700       4.07336549
C       -6.14957812       5.51663840       4.18492754
C       -6.40689153       6.09366201       5.43331025
C       -5.54195796       5.85823623       6.52053427
Br      -5.91958782       6.65412679       8.19398272
C       -4.41222269       5.04886113       6.38520474
C       -4.18529109       4.49308184       5.13935416
C       -3.11267622       3.61824499       4.68026519
O       -2.23253140       3.27174284       5.44790942
H        0.32084228       0.60097770       2.64977672
H       -1.06102693       1.99031490       4.05891616
H       -3.67911110       2.74988254       0.68121158
H       -2.27407717       1.35222118      -0.69651873
H       -6.80435320       5.68626625       3.33540094
H       -7.28326234       6.72747905       5.55723869
H       -3.73538473       4.85690879       7.21168196
C        0.88054260      -0.88054260       0.88054260
C        0.46079660      -2.15643835       1.22975432
C        1.27305412      -2.96357525       2.03966743
C        2.51816130      -2.51827623       2.51816385
C        2.91089859      -1.22065424       2.14457970
C        2.10385811      -0.40821641       1.33485800
N        3.34498709      -3.34501473       3.34496294
C        4.57137194      -2.97432136       3.86501958
O        5.22390843      -1.94956735       3.77839385
C        5.07211618      -4.10238631       4.64303675
C        6.24578868      -4.24458873       5.36076665
C        6.45491074      -5.46308747       6.01586558
C        5.49485754      -6.49132680       5.93454412
Br       5.80967225      -8.12582291       6.83220217
C        4.31642412      -6.32579904       5.20406540
C        4.13891408      -5.11059529       4.56821772
C        3.03635299      -4.63293635       3.74189707
O        2.07776481      -5.35193702       3.52248184
H       -0.49476909      -2.54192286       0.88275837
H        0.88469991      -3.94957391       2.27598418
H        3.85548932      -0.79058559       2.46413031
H        2.44796773       0.58868735       1.07049924
H        6.97381415      -3.44048547       5.41172076
H        7.36801297      -5.60979345       6.59017367
H        3.56642950      -7.10691103       5.13063494
