109
Properties=species:S:1:pos:R:3 pbc="F F F"
C        0.00000000       0.00000000       0.00000000
C        0.88054260       0.88054260      -0.88054260
C        1.92602521       0.32007943      -1.60088463
C        2.73383985       1.13275086      -2.40970608
C        2.51822036       2.51812718      -2.51825383
C        1.45048918       3.05126263      -1.77438072
C        0.63859511       2.24455424      -0.96378316
N        3.34498119       3.34496661      -3.34501697
C        3.20586791       4.71278131      -3.49206367
O        2.42646931       5.51516046      -3.01023985
C        4.24283375       5.15788979      -4.41681570
C        4.53479517       6.42302262      -4.89332627
C        5.60658047       6.54254432      -5.78473901
C        6.34601254       5.40611168      -6.16860424
C        6.03359829       4.13797222      -5.67471805
C        4.96934621       4.05265090      -4.79572998
C        4.40096902       2.89468665      -4.11553073
O        4.87447259       1.78616927      -4.29154181
H        2.12961820      -0.74657047      -1.54686441
H        3.53423262       0.63104402      -2.94498135
H        1.20588118       4.10911730      -1.79520674
H       -0.17635339       2.69978699      -0.40634602
H        3.95328624       7.28699018      -4.58574397
H        5.86454105       7.52359160      -6.17984744
H        6.59221937       3.25209867      -5.95965743
C        7.44437810       5.55653526      -7.08760687
C        8.36425926       5.68251502      -7.85727157
Br       9.85162930       5.88621363      -9.10175429
C       -0.88054260      -0.88054260      -0.88054260
C       -2.24970340      -0.93653617      -0.66074969
C       -3.05655442      -1.74733546      -1.47240692
C       -2.51827313      -2.51814552      -2.51818272
C       -1.12772238      -2.43685855      -2.71155160
C       -0.31494331      -1.62807746      -1.90391175
N       -3.34500928      -3.34495931      -3.34499618
C       -2.88987810      -4.14063176      -4.38020303
O       -1.77694703      -4.34338228      -4.83154032
C       -4.05107776      -4.81039426      -4.95606722
C       -4.13879141      -5.70612273      -6.00622992
C       -5.41057387      -6.18704193      -6.33624800
C       -6.54381759      -5.76261000      -5.61430087
C       -6.43183935      -4.85732954      -4.55711967
C       -5.16188568      -4.40054334      -4.25529807
C       -4.71724064      -3.46638425      -3.22756152
O       -5.52441111      -2.95754506      -2.47022750
H       -2.70902844      -0.35762672       0.13674302
H       -4.11841506      -1.74594876      -1.24589418
H       -0.62173117      -2.99417278      -3.49430127
H        0.75578288      -1.59562320      -2.08993930
H       -3.25378529      -6.02146743      -6.55076766
H       -5.51678966      -6.89360606      -7.15758436
H       -7.29378969      -4.51968659      -3.99049920
C       -7.84139676      -6.27272734      -5.97439614
C       -8.92811931      -6.69995062      -6.27597593
Br     -10.68525776      -7.39073452      -6.76360494
C       -0.88054260       0.88054260       0.88054260
C       -0.56773975       1.05833808       2.22091144
C       -1.37965617       1.86879792       3.02784270
C       -2.51812814       2.51821700       2.51825624
C       -2.80445168       2.31520053       1.15648032
C       -1.99688039       1.50632965       0.34372248
N       -3.34495893       3.34500808       3.34499775
C       -4.48523433       4.00308721       2.92239135
O       -5.04948932       4.05796546       1.84441484
C       -5.01966507       4.72710920       4.07076497
C       -6.13791810       5.53366945       4.17955651
C       -6.40110976       6.10210170       5.43065233
C       -5.54775693       5.84975313       6.52321840
C       -4.42392338       5.03175778       6.39060740
C       -4.19094968       4.48481128       5.14196613
C       -3.12197497       3.60465593       4.68455550
O       -2.25158556       3.24386932       5.45672879
H        0.30290759       0.57522883       2.65759091
H       -1.07913485       1.96432974       4.06679341
H       -3.66100257       2.77586779       0.67333485
H       -2.25614299       1.37796985      -0.70433323
H       -6.78376975       5.71633773       3.32591291
H       -7.27301614       6.74244148       5.55252247
H       -3.75600251       4.82677356       7.22119941
C       -5.84114952       6.44722150       7.80014923
C       -6.08686581       6.94760125       8.86957880
Br      -6.48416827       7.75667299      10.59875596
C        0.88054260      -0.88054260       0.88054260
C        0.43408147      -2.13216449       1.28074330
C        1.24641900      -2.93937535       2.09050245
C        2.51815798      -2.51827605       2.51816735
C        2.93753450      -1.24484518       2.09375285
C        2.13057193      -0.43249152       1.28386906
N        3.34498554      -3.34501542       3.34496381
C        4.59707919      -2.99665455       3.81697915
O        5.27669617      -1.99527656       3.67989689
C        5.08772008      -4.11595241       4.61386674
C        6.27800383      -4.27257119       5.30056904
C        6.47086436      -5.47696827       5.98603117
C        5.47878605      -6.47742284       5.96451957
C        4.28404701      -6.29773173       5.26450982
C        4.12325929      -5.09702080       4.59744700
C        3.01063493      -4.61062749       3.78992399
O        2.02495775      -5.30625155       3.62097436
H       -0.54260001      -2.49843898       0.97407317
H        0.83645474      -3.90565770       2.36814555
H        3.90373309      -0.83450403       2.37196810
H        2.49579935       0.54520524       0.97918551
H        7.03070880      -3.48987648       5.30543511
H        7.39630827      -5.63438647       6.53728535
H        3.50938767      -7.05745110       5.23713670
C        5.70230391      -7.70795797       6.67825836
C        5.88950012      -8.73853114       7.27601459
Br       6.19218056     -10.40488079       8.24253587
