122
Properties=species:S:1:pos:R:3 pbc="F F F"
C        1.79044662       1.79044662      -1.79044662
C        2.83592923       1.22998345      -2.51078865
C        3.64374388       2.04265489      -3.31961011
C        3.42812438       3.42803120      -3.42815786
C        2.36039320       3.96116666      -2.68428475
C        1.54849914       3.15445827      -1.87368719
N        4.25488521       4.25487063      -4.25492099
C        4.11577194       5.62268533      -4.40196769
O        3.33637334       6.42506448      -3.92014388
C        5.15273777       6.06779381      -5.32671972
C        5.44469919       7.33292665      -5.80323030
C        6.51648449       7.45244834      -6.69464303
C        7.25591656       6.31601570      -7.07850827
Br       8.69840408       6.51356755      -8.28543778
C        6.94350232       5.04787624      -6.58462207
C        5.87925023       4.96255492      -5.70563401
C        5.31087305       3.80459067      -5.02543476
O        5.78437661       2.69607330      -5.20144583
H        3.03952222       0.16333356      -2.45676843
H        4.44413665       1.54094804      -3.85488538
H        2.11578520       5.01902133      -2.70511076
H        0.73355063       3.60969102      -1.31625004
H        4.86319026       8.19689421      -5.49564799
H        6.77444507       8.43349562      -7.08975146
H        7.50212340       4.16200270      -6.86956145
C       -1.79044662      -1.79044662      -1.79044662
C       -3.07341610      -1.37947108      -2.12381416
C       -3.88051844      -2.19168575      -2.93380468
C       -3.42815134      -3.42802947      -3.42813264
C       -2.12362042      -3.81220062      -3.07002356
C       -1.31102156      -3.00496050      -2.26066253
N       -4.25489712      -4.25486429      -4.25491544
C       -3.88817493      -5.48617286      -4.76607716
O       -2.86915763      -6.14582208      -4.66660199
C       -5.01458060      -5.98485983      -5.54781087
C       -5.15948906      -7.16188745      -6.25947963
C       -6.37522128      -7.36757940      -6.92077519
C       -7.39815137      -6.40094346      -6.85134569
Br      -9.02889011      -6.71109955      -7.75741975
C       -7.23009565      -5.21937572      -6.12652926
C       -6.01782538      -5.04550279      -5.48411100
C       -5.53853521      -3.94091920      -4.66144407
O       -6.25172654      -2.97512824      -4.45504096
H       -3.46474177      -0.43114762      -1.76373483
H       -4.87308946      -1.81148036      -3.15540024
H       -1.68684164      -4.74847172      -3.40460393
H       -0.30832700      -3.34189032      -2.00927437
H       -4.35951104      -7.89502764      -6.30119378
H       -6.52392448      -8.28315789      -7.49060979
H       -8.00705224      -4.46422897      -6.06240633
C       -1.79044662       1.79044662       1.79044662
C       -1.41802343       3.10022485       2.05845306
C       -2.23013908       3.90725833       2.86861145
C       -3.42807085       3.42818011       3.42806248
C       -3.77362148       2.09679304       3.13543008
C       -2.96644131       1.28423587       2.32596741
N       -4.25489361       4.25491750       4.25486573
C       -5.43586641       3.85319255       4.85136600
O       -6.04058635       2.79597821       4.84501715
C       -5.95445602       4.99343823       5.59935705
C       -7.09878808       5.11561067       6.36645739
C       -7.33663149       6.35370055       6.97324383
C       -6.43314315       7.42054257       6.79675481
Br      -6.78551988       9.08064095       7.63124858
C       -5.28351189       7.27469502       6.01779372
C       -5.07646770       6.03935793       5.43161354
C       -3.99168147       5.57383456       4.57538245
O       -3.08092400       6.32529540       4.27567634
H       -0.49986494       3.51252681       1.64723247
H       -1.88007471       4.92078899       3.03910637
H       -4.67992460       1.63917495       3.52081774
H       -3.27314080       0.26051957       2.12583133
H       -7.78322338       4.28176396       6.49074512
H       -8.22793442       6.48552287       7.58423487
H       -4.57708096       8.08552790       5.87107868
C        1.79044662      -1.79044662       1.79044662
C        1.37719373      -3.07161783       2.12788977
C        2.18943180      -3.87873864       2.93783843
C        3.42806611      -3.42818026       3.42806708
C        3.81432884      -2.12530093       3.06621482
C        3.00726931      -1.31284468       2.25653060
N        4.25489148      -4.25491859       4.25486678
C        5.47503658      -3.87938134       4.78600704
O        6.12100166      -2.84955856       4.71102148
C        5.97823290      -5.00934775       5.55967065
C        7.14787383      -5.14842342       6.28455888
C        7.36094249      -6.36998055       6.93265282
C        6.40866176      -7.40424601       6.83753276
Br       6.72863800      -9.04273908       7.72603233
C        5.23418585      -7.24179025       6.10002454
C        5.05261745      -6.02344336       5.47137835
C        3.95249873      -5.54767882       4.64072093
O        3.00048397      -6.27174831       4.40966346
H        0.42676044      -3.46127750       1.77158627
H        1.80633060      -4.86902303       3.16461644
H        4.75366698      -1.69094399       3.39530631
H        3.34624609      -0.31176647       2.00147913
H        7.86990963      -4.33967698       6.34614585
H        8.27104936      -6.51436316       7.51227964
H        4.49017730      -8.02754194       6.01596831
C       -0.00445707       0.01189536      -1.78238275
H       -0.66409135       0.67374010      -2.43557963
H        0.65740317      -0.63156657      -2.45157240
C       -0.90989263      -0.90692880      -0.91072765
C        0.90977584       0.90977584      -0.90977584
C       -0.00465871       1.77757030       0.00794375
H       -0.66225468       2.44313916      -0.64384735
H        0.64322798       2.43503045       0.67728295
C       -1.78241447       0.00034974      -0.00472694
H       -2.45427497      -0.65498947       0.64260836
H       -2.43311707       0.67328779      -0.65473579
C       -0.91132561       0.90220522       0.91563759
C       -0.01476271      -0.02253852       1.78660255
H       -0.67934791      -0.69751639       2.42135241
H        0.63392994       0.61504881       2.47327442
C        0.01484550      -1.77751727      -0.01636693
H        0.67870853      -2.42144646      -0.68295456
H       -0.62264859      -2.45592969       0.64226336
C        1.78714474       0.01002794       0.00389507
H        2.44202412       0.67113390       0.66197326
H        2.45385902      -0.65136977      -0.64189061
C        0.91606151      -0.90478549       0.90901405
