162
Properties=species:S:1:pos:R:3 pbc="F F F"
C        1.79268828       1.79268828      -1.79268828
C        1.33833860       3.04495511      -2.18184608
C        2.16070643       3.85409977      -2.96027749
C        3.43367342       3.41082909      -3.36434711
C        4.28510076       4.34560095      -4.18536591
C        3.87608584       2.10990766      -3.02225927
N        5.17084901       1.69864025      -3.38759015
C        5.45455667       0.27719440      -3.50156723
N        6.82007868       0.14225162      -3.93024242
C        7.28134810       0.53532835      -5.15319055
O        6.68723859       1.09970616      -6.05285898
C        8.69004124       0.15047518      -5.21007792
C        9.63197673       0.33575030      -6.20310836
C       10.91903582      -0.15784425      -5.96162865
C       11.22022078      -0.81609848      -4.75043857
C       10.25193479      -0.99702219      -3.76025448
C        8.99207922      -0.49575702      -4.02433939
C        7.77294902      -0.53142538      -3.21966124
O        7.68394493      -1.11226705      -2.15589171
C        3.05033024       1.33392196      -2.19276155
H        0.36134331       3.40613991      -1.87371149
H        1.80812577       4.84350517      -3.24427100
H        3.84792582       5.34860119      -4.23619597
H        4.37874849       3.96863017      -5.20881800
H        5.27965557       4.45167744      -3.73991838
H        5.46317837       2.16526359      -4.24529459
H        4.81057001      -0.18072736      -4.26137205
H        5.32773457      -0.24150629      -2.54700778
H        9.38152519       0.84263464      -7.12987026
H       11.68946579      -0.02971075      -6.72018056
H       10.46537360      -1.50375389      -2.82492606
H        3.37520625       0.36246100      -1.83516651
C       12.55395596      -1.31343811      -4.53271451
C       13.67095917      -1.72996005      -4.35037060
Br      15.47705889      -2.40344080      -4.05553593
C       -1.79268828      -1.79268828      -1.79268828
C       -2.10438292      -3.08059922      -1.38015766
C       -2.93317681      -3.86656994      -2.17533693
C       -3.44260090      -3.37482118      -3.39142753
C       -4.35510447      -4.26749700      -4.19346615
C       -3.07698689      -2.08472515      -3.84654073
N       -3.63446391      -1.58504310      -5.03757240
C       -2.93032950      -0.54004524      -5.76294356
N       -3.68686885      -0.25423818      -6.95146569
C       -3.85464256      -1.13284567      -7.98237877
O       -3.47607380      -2.28539494      -8.07833500
C       -4.61207090      -0.42564372      -9.01287972
C       -5.07387100      -0.85536057     -10.24160381
C       -5.77597148       0.07241547     -11.01926421
C       -5.98962490       1.38630096     -10.55123694
C       -5.51062081       1.80244040      -9.30698667
C       -4.82528512       0.86430631      -8.55968278
C       -4.19371926       0.97963102      -7.24709664
O       -4.12577374       2.01869380      -6.62048964
C       -2.28293858      -1.29242766      -3.00164751
H       -1.72558871      -3.47429751      -0.44130848
H       -3.19179855      -4.86764998      -1.83645341
H       -4.63835028      -5.16355284      -3.63081986
H       -3.85331257      -4.59235603      -5.11052805
H       -5.28165161      -3.74226021      -4.44733955
H       -3.84663571      -2.34870355      -5.67839730
H       -1.93628245      -0.88914554      -6.06578671
H       -2.83716854       0.37502163      -5.17108915
H       -4.89799393      -1.86961614     -10.58642003
H       -6.15709624      -0.22938836     -11.99345100
H       -5.66283689       2.80959771      -8.93330659
H       -2.03972941      -0.26833289      -3.26477146
C       -6.71510781       2.31765036     -11.37577490
C       -7.32269975       3.09765547     -12.06632544
Br      -8.30512453       4.35885778     -13.18288726
C       -1.79268828       1.79268828       1.79268828
C       -2.98405043       1.28720747       2.29388189
C       -3.76662660       2.08727035       3.12118674
C       -3.36968537       3.39913216       3.44003208
C       -4.24971523       4.20460212       4.36175026
C       -2.18676129       3.94060653       2.88088495
N       -1.77404550       5.23415375       3.24888016
C       -0.90006329       5.97747190       2.35578311
N       -0.67751789       7.26944915       2.94560568
C       -1.64808252       8.21553522       3.10624926
O       -2.83712613       8.14584949       2.85682811
C       -0.99080551       9.39552119       3.66426764
C       -1.51041229      10.61813714       4.04228596
C       -0.61155046      11.56496343       4.54630634
C        0.76304704      11.26475889       4.65284903
C        1.26926017      10.02338367       4.26104359
C        0.35837525       9.10741492       3.77162192
C        0.55953539       7.74934991       3.27137036
O        1.65181561       7.23097937       3.14840583
C       -1.38850899       3.09615752       2.09234723
H       -3.30286937       0.27464491       2.06368041
H       -4.68882745       1.67826966       3.52880483
H       -5.03950560       3.58843173       4.80478565
H       -4.72995110       5.01789793       3.80834763
H       -3.66388340       4.61828124       5.18908674
H       -2.58092654       5.81213862       3.48067139
H       -1.38393959       6.12415009       1.38312502
H        0.06306303       5.47754249       2.21875660
H       -2.57075417      10.83232811       3.95094781
H       -0.98353828      12.54011567       4.85628165
H        2.32349020       9.77718287       4.33285310
H       -0.43312812       3.43453320       1.70517245
C        1.66240815      12.26098620       5.17465430
C        2.41562308      13.09532657       5.61166622
Br       3.63350791      14.44438439       6.31827753
C        1.79268828      -1.79268828       1.79268828
C        3.03697116      -1.33039469       2.19777394
C        3.82118120      -2.12795296       3.02594953
C        3.37214855      -3.39518687       3.44151418
C        4.25867583      -4.19861159       4.35878020
C        2.13094873      -3.89702139       2.98028265
N        1.67004189      -5.14239408       3.44464343
C        0.70640273      -5.88161243       2.64530314
N        0.44799835      -7.12429202       3.32028234
C        1.37298163      -8.11480035       3.48208502
O        2.54760716      -8.12787804       3.16431853
C        0.68551813      -9.22240082       4.14267538
C        1.15843142     -10.45053192       4.56187206
C        0.23978939     -11.31467524       5.16835560
C       -1.10782502     -10.92995731       5.33242858
C       -1.56715891      -9.68465744       4.89766855
C       -0.63737578      -8.85117071       4.30686666
C       -0.79252111      -7.51316274       3.74054325
O       -1.86006784      -6.93989453       3.64774290
C        1.33578857      -3.05218749       2.18903768
H        3.39687850      -0.35212835       1.89218785
H        4.78645568      -1.75136240       3.35808385
H        5.10535586      -3.60590041       4.72146671
H        4.66079384      -5.06744080       3.82796201
H        3.69998914      -4.53173716       5.23952507
H        2.45613835      -5.75259432       3.66500388
H        1.12435894      -6.10911100       1.65774476
H       -0.23422541      -5.33497893       2.53248255
H        2.19838040     -10.73047157       4.42517812
H        0.57516047     -12.29130344       5.51347169
H       -2.60039427      -9.37423312       5.01270691
H        0.34249082      -3.35533622       1.87500672
C       -2.02863917     -11.84234179       5.95952974
C       -2.79982103     -12.60646379       6.48472696
Br      -4.04675686     -13.84198443       7.33392644
C       -0.00445707       0.01189536      -1.78238275
H       -0.66409135       0.67374010      -2.43557963
H        0.65740317      -0.63156657      -2.45157240
C       -0.90989263      -0.90692880      -0.91072765
C        0.90977584       0.90977584      -0.90977584
C       -0.00465871       1.77757030       0.00794375
H       -0.66225468       2.44313916      -0.64384735
H        0.64322798       2.43503045       0.67728295
C       -1.78241447       0.00034974      -0.00472694
H       -2.45427497      -0.65498947       0.64260836
H       -2.43311707       0.67328779      -0.65473579
C       -0.91132561       0.90220522       0.91563759
C       -0.01476271      -0.02253852       1.78660255
H       -0.67934791      -0.69751639       2.42135241
H        0.63392994       0.61504881       2.47327442
C        0.01484550      -1.77751727      -0.01636693
H        0.67870853      -2.42144646      -0.68295456
H       -0.62264859      -2.45592969       0.64226336
C        1.78714474       0.01002794       0.00389507
H        2.44202412       0.67113390       0.66197326
H        2.45385902      -0.65136977      -0.64189061
C        0.91606151      -0.90478549       0.90901405
