133
Properties=species:S:1:pos:R:3 pbc="F F F"
C        0.00000000       0.00000000       0.00000000
C        0.88278425       0.88278425      -0.88278425
C        0.42843457       2.13505109      -1.27194206
C        1.25080240       2.94419574      -2.05037347
C        2.52376939       2.50092506      -2.45444308
C        3.37519674       3.43569692      -3.27546189
C        2.96618182       1.20000364      -2.11235524
N        4.26094498       0.78873622      -2.47768613
C        4.54465265      -0.63270963      -2.59166320
N        5.91017465      -0.76765241      -3.02033840
C        6.37144408      -0.37457567      -4.24328652
O        5.77733456       0.18980214      -5.14295496
C        7.78013721      -0.75942884      -4.30017389
C        8.72207270      -0.57415373      -5.29320434
C       10.00913180      -1.06774828      -5.05172463
C       10.31031675      -1.72600250      -3.84053455
Br      12.06236849      -2.37932917      -3.55452288
C        9.34203077      -1.90692621      -2.85035046
C        8.08217520      -1.40566104      -3.11443536
C        6.86304500      -1.44132940      -2.30975721
O        6.77404090      -2.02217108      -1.24598769
C        2.14042621       0.42401793      -1.28285753
H       -0.54856072       2.49623588      -0.96380746
H        0.89822175       3.93360114      -2.33436697
H        2.93802179       4.43869717      -3.32629195
H        3.46884446       3.05872614      -4.29891397
H        4.36975154       3.54177341      -2.83001435
H        4.55327435       1.25535957      -3.33539056
H        3.90066599      -1.09063138      -3.35146803
H        4.41783054      -1.15141031      -1.63710376
H        8.47162117      -0.06726938      -6.21996624
H       10.77956177      -0.93961478      -5.81027654
H        9.55546957      -2.41365792      -1.91502204
H        2.46530222      -0.54744302      -0.92526249
C       -0.88278425      -0.88278425      -0.88278425
C       -0.55062990      -2.21759205      -1.06720577
C       -1.37626841      -3.02133471      -1.84776849
C       -2.52867803      -2.49243023      -2.45802928
C       -3.39414709      -3.42211558      -3.27009289
C       -2.83756580      -1.11701658      -2.32395832
N       -4.01989749      -0.61225839      -2.89521145
C       -4.10561816       0.80595403      -3.20394209
N       -5.38572061       1.03832706      -3.81546709
C       -5.75241654       0.54726795      -5.03500634
O       -5.13737879      -0.19044023      -5.78227264
C       -7.08516298       1.07811981      -5.31383909
C       -7.92498708       0.87531304      -6.39144928
C       -9.15767035       1.53759853      -6.37303633
C       -9.50722651       2.37445156      -5.29207385
Br     -11.18280896       3.25224674      -5.30699997
C       -8.64166900       2.56963650      -4.21342251
C       -7.43422056       1.89998130      -4.25671026
C       -6.31905166       1.90011968      -3.31254084
O       -6.27733790       2.59791692      -2.31843653
C       -2.01856964      -0.33982916      -1.48890287
H        0.33139117      -2.64444763      -0.59842616
H       -1.12278738      -4.07224423      -1.97115826
H       -3.08532801      -4.46627108      -3.15141182
H       -3.32301967      -3.17039936      -4.33306554
H       -4.43794789      -3.35777488      -2.94581654
H       -4.27066656      -1.14833437      -3.72502355
H       -3.32702664       1.08783452      -3.92231050
H       -4.02223520       1.42434490      -2.30563369
H       -7.63822365       0.22956296      -7.21565732
H       -9.84765260       1.40161849      -7.20418941
H       -8.89294445       3.21215328      -3.37604252
H       -2.25533431       0.69964537      -1.28743275
C       -0.88278425       0.88278425       0.88278425
C       -2.10820655       0.40336359       1.32385759
C       -2.89178357       1.20185299       2.15173505
C       -2.46128798       2.48675104       2.53109851
C       -3.34540255       3.29086790       3.45008510
C       -1.24096185       3.00443402       2.03314483
N       -0.79711309       4.26876841       2.46148583
C        0.13366041       5.01073084       1.62653580
N        0.37954958       6.27263642       2.26977380
C       -0.56275696       7.24684931       2.43054866
O       -1.74376995       7.22863531       2.13768640
C        0.11457917       8.38238315       3.05307828
C       -0.37555169       9.60903327       3.45653835
C        0.53691996      10.50488951       4.02513860
C        1.89555851      10.15196292       4.16844438
Br       3.09628705      11.39277837       4.94107087
C        2.37215715       8.90753657       3.75007559
C        1.44822321       8.04242502       3.19674771
C        1.61999905       6.69617964       2.65529222
O        2.69735263       6.14346703       2.55174311
C       -0.44466125       2.15970567       1.24293475
H       -2.45348036      -0.58849148       1.04649375
H       -3.84167068       0.81236492       2.51215425
H       -4.17150404       2.68848149       3.84302538
H       -3.77693723       4.13960500       2.90994235
H       -2.77568454       3.65427640       4.31157837
H       -1.59126677       4.86698894       2.68576877
H       -0.30956785       5.20835729       0.64357749
H        1.08316639       4.48156574       1.50512464
H       -1.42385712       9.86423238       3.33622851
H        0.18808461      11.48144007       4.35686808
H        3.41394977       8.62126469       3.84951877
H        0.53517978       2.47675526       0.90154621
C        0.88278425      -0.88278425       0.88278425
C        2.17759902      -0.47984383       1.17798487
C        2.96389848      -1.27460858       2.00686455
C        2.46541786      -2.48086721       2.53285247
C        3.35916261      -3.28272284       3.44447010
C        1.16748095      -2.92688573       2.18417402
N        0.66177857      -4.10754623       2.75804254
C       -0.39699579      -4.82945792       2.07114409
N       -0.68687746      -6.00777236       2.84196575
C        0.18332537      -7.04553754       3.01129202
O        1.33114658      -7.15638349       2.62256158
C       -0.52637637      -8.06172684       3.78553180
C       -0.10406477      -9.29006572       4.25512236
C       -1.03241711     -10.05182128       4.97370398
C       -2.33957383      -9.56895871       5.19546391
Br      -3.56408620     -10.63086556       6.17078283
C       -2.74832713      -8.32539373       4.70838841
C       -1.80974743      -7.59393092       4.00676603
C       -1.91854232      -6.28644434       3.36357079
O       -2.95211708      -5.65041776       3.29955683
C        0.37567445      -2.08201437       1.38961285
H        2.57663449       0.45141772       0.78626586
H        3.97068029      -0.94302326       2.25248632
H        4.26333179      -2.72613357       3.71354555
H        3.67023803      -4.20771415       2.94853240
H        2.84056046      -3.52249901       4.37847984
H        1.42124638      -4.75370992       2.96906818
H       -0.06054964      -5.14527986       1.07677242
H       -1.30716798      -4.22963368       1.98105828
H        0.90504891      -9.64644136       4.07282775
H       -0.73633462     -11.02517849       5.36137965
H       -3.75029519      -7.94045474       4.86667414
H       -0.65323778      -2.33747390       1.15888556
