121
Properties=species:S:1:pos:R:3 pbc="F F F"
C        0.00000000       0.00000000       0.00000000
C        0.88134108       0.88134108      -0.88134108
C        1.48345281       0.34671693      -2.01485859
C        2.28774485       1.16053878      -2.81936267
C        2.50220583       2.51515085      -2.50650022
C        1.88515023       3.02873023      -1.35600560
C        1.07896465       2.21790861      -0.54745854
C        3.35208565       3.31836939      -3.39411161
N        3.97858570       2.86779508      -4.48405608
N        4.67945931       3.90742305      -5.07978221
C        4.45356362       4.94411870      -4.33225456
S        4.89515558       6.59086309      -4.31809832
C        3.91373492       6.73641279      -2.83418575
N        3.32184144       5.65064935      -2.40316573
N        3.65206476       4.65819262      -3.28144979
C        3.79775703       8.03942704      -2.14514866
C        3.08581048       8.09398219      -0.94829912
N        2.90371260       9.22343973      -0.21948056
C        3.45629917      10.35757572      -0.70736069
C        4.17967112      10.40498457      -1.88836096
C        4.35513547       9.23127966      -2.62010635
H        1.33697993      -0.69558353      -2.28554220
H        2.75088986       0.72447309      -3.70434599
H        2.01286665       4.06539139      -1.05806315
H        0.61175423       2.64202168       0.33779264
H        2.62343455       7.20883109      -0.51681201
H        3.29217556      11.24490476      -0.10205414
H        4.91911981       9.26928890      -3.54704152
C        4.74075778      11.64626111      -2.35528098
C        5.21066787      12.68583022      -2.74632650
Br       5.97047273      14.36672553      -3.37861402
C       -0.88134108      -0.88134108      -0.88134108
C       -1.72693301      -1.81899453      -0.29910079
C       -2.53363910      -2.62155666      -1.11245053
C       -2.50930953      -2.50078575      -2.51376162
C       -1.64541690      -1.54885554      -3.07561362
C       -0.83590111      -0.74298743      -2.26544327
C       -3.38437956      -3.36813325      -3.31205384
N       -4.20332883      -4.30326478      -2.82384325
N       -4.88244339      -4.91649465      -3.86772652
C       -4.45160557      -4.33382969      -4.94450163
S       -4.73781888      -4.44466551      -6.62163260
C       -3.53825328      -3.13623642      -6.80984376
N       -2.98531730      -2.67387761      -5.71646160
N       -3.53176699      -3.37822156      -4.68171862
C       -3.20453671      -2.62235601      -8.15544001
C       -2.20758028      -1.65477846      -8.26573304
N       -1.80795353      -1.10094780      -9.43773156
C       -2.43373319      -1.52994883     -10.55755357
C       -3.43708993      -2.48571945     -10.55020727
C       -3.83048039      -3.04215739      -9.33388369
H       -1.77078499      -1.93657410       0.78042050
H       -3.19079316      -3.35047226      -0.63844352
H       -1.57773612      -1.40809749      -4.15048757
H       -0.17647641      -0.01236019      -2.72714667
H       -1.67657592      -1.27849848      -7.39400324
H       -2.09246533      -1.06714335     -11.47952578
H       -4.61887741      -3.78856709      -9.32800573
C       -4.06613848      -2.89796854     -11.77819286
C       -4.59296665      -3.24322714     -12.80663079
Br      -5.44480323      -3.80148110     -14.46952794
C       -0.88134108       0.88134108       0.88134108
C       -1.42550690       2.05278744       0.36673399
C       -2.23423215       2.85438973       1.17902441
C       -2.51161637       2.50034049       2.51190003
C       -1.94806367       1.31482522       3.00699717
C       -1.13781133       0.50894009       2.19758039
C       -3.37258123       3.38069611       3.31128931
N       -3.91028487       4.52876280       2.89138918
N       -4.67343590       5.08372487       3.90950380
C       -4.56993154       4.25608523       4.90392011
S       -5.16400021       4.14212444       6.49799234
C       -4.26062180       2.60712884       6.61658283
N       -3.58434439       2.23134283       5.55996930
N       -3.78770782       3.19266380       4.61133555
C       -4.29335133       1.82075440       7.86822700
C       -3.51341966       0.66840493       7.94626719
N       -3.45434935      -0.14094207       9.03322561
C       -4.21179606       0.21284561      10.09659391
C       -5.02049830       1.33799241      10.11452593
C       -5.06423139       2.15596330       8.98632679
H       -1.23199117       2.35426323      -0.65931580
H       -2.65278407       3.76856173       0.75836314
H       -2.12148678       0.98696519       4.02786922
H       -0.71488533      -0.40529773       2.60639567
H       -2.88845339       0.34334232       7.11728194
H       -4.14386078      -0.45542160      10.95069528
H       -5.70041842       3.03563776       8.99939404
C       -5.80555821       1.65830939      11.27843228
C       -6.46304588       1.92657486      12.25320384
Br      -7.52614783       2.36033743      13.82932702
C        0.88134108      -0.88134108       0.88134108
C        1.48975561      -0.34472777       2.01054495
C        2.29401248      -1.15854868       2.81508513
C        2.50217324      -2.51513446       2.50654919
C        1.87883017      -3.03071076       1.36034513
C        1.07265314      -2.21989812       0.55178054
C        3.35237208      -3.31821127       3.39398329
N        3.98469235      -2.86590342       4.47984109
N        4.68388926      -3.90592336       5.07685196
C        4.45125285      -4.94456948       4.33411455
S        4.88657041      -6.59301653       4.32453004
C        3.89899334      -6.74044642       2.84489370
N        3.30957301      -5.65408294       2.41200056
N        3.64686393      -4.65957686       3.28526638
C        3.77548969      -8.04560298       2.16124005
C        3.05881368      -8.10197709       0.96730101
N        2.86969526      -9.23347909       0.24345854
C        3.41984207     -10.36785096       0.73354255
C        4.14749849     -10.41354248       1.91197568
C        4.33016155      -9.23775757       2.63860236
H        1.34824360       0.69913414       2.27782913
H        2.76214888      -0.72090392       3.69665614
H        2.00150400      -4.06896527       1.06585192
H        0.60049548      -2.64557604      -0.33008826
H        2.59815022      -7.21671547       0.53421196
H        3.25007928     -11.25682990       0.13222529
H        4.89750569      -9.27440464       3.56353990
C        4.70566156     -11.65516466       2.38147366
C        5.17312313     -12.69502324       2.77467821
Br       5.92896895     -14.37638661       3.41045672
