106
Properties=species:S:1:pos:R:3 pbc="F F F"
C        1.79041159       1.79041159      -1.79041159
C        1.45880470       3.12314651      -1.99395759
C        2.27026845       3.93044586      -2.80342518
C        3.42758062       3.42679627      -3.42552437
C        3.73206650       2.07214755      -3.20001629
C        2.92463712       1.26058045      -2.39091399
N        4.25570860       4.25936533      -4.25847743
C        5.11447665       3.73678736      -5.20520804
O        5.25638544       2.57842721      -5.56161027
S        6.06250887       4.99126599      -5.97714076
C        5.09655284       6.28474949      -5.23336089
H        5.72652317       7.07756229      -4.82349813
C        4.26176289       5.64573330      -4.15664521
O        3.70897784       6.32985656      -3.29656710
H        0.57025524       3.55073447      -1.53546686
H        1.94095639       4.95592104      -2.94909062
H        4.62016083       1.60435681      -3.61847598
H        3.19922261       0.21956942      -2.23771938
C        4.19337282       6.85482035      -6.19922065
C        3.43695955       7.33225469      -7.00812820
Br       2.21390328       8.10422564      -8.31606329
C       -1.79041159      -1.79041159      -1.79041159
C       -3.17200931      -1.66249583      -1.74140366
C       -3.97903575      -2.47282193      -2.55228181
C       -3.42635967      -3.42576059      -3.42778100
C       -2.02379987      -3.53052267      -3.44990780
C       -1.21203277      -2.72225961      -2.64183918
N       -4.25983789      -4.25767851      -4.25603496
C       -3.81869256      -5.45590949      -4.78187000
O       -2.76717583      -6.04320937      -4.58603773
S       -5.01920896      -6.17899290      -5.83271375
C       -6.26341166      -5.00760322      -5.34364834
H       -6.81062331      -4.61375217      -6.20320811
C       -5.56025149      -3.90542051      -4.59846940
O       -6.11906759      -2.83027569      -4.38605823
H       -3.63981163      -0.94158534      -1.07505961
H       -5.05330853      -2.34692920      -2.44573032
H       -1.50848506      -4.22050654      -4.11400203
H       -0.13130576      -2.83128369      -2.69392195
C       -7.19661031      -5.61817016      -4.43263335
C       -7.97816417      -6.12951997      -3.66965830
Br      -9.24187068      -6.95632936      -2.43599218
C       -1.79041159       1.79041159       1.79041159
C       -1.30253473       2.99528736       2.27808671
C       -2.11427138       3.80300631       3.08686180
C       -3.42733001       3.42713017       3.42544107
C       -3.88822325       2.19941202       2.91659508
C       -3.08112082       1.38821473       2.10679601
N       -4.25565159       4.25884277       4.25905700
C       -5.33975892       3.76166875       4.95504439
O       -5.71745082       2.60724553       5.07172659
S       -6.20965664       5.03426324       5.78699574
C       -4.94091049       6.23066904       5.44308369
H       -5.35928593       7.17664113       5.09165654
C       -4.03294216       5.62285791       4.40834133
O       -3.23730553       6.31889781       3.77919816
H       -0.29164358       3.32072445       2.04408854
H       -1.66482850       4.71843299       3.46270656
H       -4.89757522       1.84089013       3.10452828
H       -3.47837549       0.44899377       1.72914214
C       -4.15019196       6.47591030       6.62131156
C       -3.48796518       6.68129985       7.60807741
Br      -2.41720050       7.01339739       9.20359432
C        1.79041159      -1.79041159       1.79041159
C        3.09911828      -1.41478138       2.06200915
C        3.90617703      -2.22580432       2.87215814
C        3.42598203      -3.42608881       3.42783041
C        2.09688098      -3.77738184       3.12996752
C        1.28521689      -2.96977477       2.32113990
N        4.26004154      -4.25694752       4.25656231
C        4.00091323      -5.59839472       4.45716410
O        3.15080495      -6.30506698       3.94055099
S        5.12529059      -6.30806196       5.59756307
C        6.15536736      -4.85950543       5.59979043
H        6.44602393      -4.56945053       6.61210913
C        5.37400913      -3.76392362       4.92620866
O        5.71765169      -2.58732703       5.03042279
H        3.51084776      -0.49717683       1.64843199
H        4.93010428      -1.89365623       3.02220753
H        1.63326054      -4.67311677       3.53661632
H        0.26101968      -3.27516567       2.12032605
C        7.34269429      -5.08723078       4.81748875
C        8.33708060      -5.27795076       4.16231109
Br       9.94491915      -5.58632883       3.10294423
C       -0.00445707       0.01189536      -1.78238275
H       -0.66409135       0.67374010      -2.43557963
H        0.65740317      -0.63156657      -2.45157240
C       -0.90989263      -0.90692880      -0.91072765
C        0.90977584       0.90977584      -0.90977584
C       -0.00465871       1.77757030       0.00794375
H       -0.66225468       2.44313916      -0.64384735
H        0.64322798       2.43503045       0.67728295
C       -1.78241447       0.00034974      -0.00472694
H       -2.45427497      -0.65498947       0.64260836
H       -2.43311707       0.67328779      -0.65473579
C       -0.91132561       0.90220522       0.91563759
C       -0.01476271      -0.02253852       1.78660255
H       -0.67934791      -0.69751639       2.42135241
H        0.63392994       0.61504881       2.47327442
C        0.01484550      -1.77751727      -0.01636693
H        0.67870853      -2.42144646      -0.68295456
H       -0.62264859      -2.45592969       0.64226336
C        1.78714474       0.01002794       0.00389507
H        2.44202412       0.67113390       0.66197326
H        2.45385902      -0.65136977      -0.64189061
C        0.91606151      -0.90478549       0.90901405
