98
Properties=species:S:1:pos:R:3 pbc="F F F"
C        1.79041159       1.79041159      -1.79041159
C        1.45880470       3.12314651      -1.99395759
C        2.27026845       3.93044586      -2.80342518
C        3.42758062       3.42679627      -3.42552437
C        3.73206650       2.07214755      -3.20001629
C        2.92463712       1.26058045      -2.39091399
N        4.25570860       4.25936533      -4.25847743
C        5.11447665       3.73678736      -5.20520804
O        5.25638544       2.57842721      -5.56161027
S        6.06250887       4.99126599      -5.97714076
C        5.09655284       6.28474949      -5.23336089
H        5.72652317       7.07756229      -4.82349813
Br       3.88157071       7.05162419      -6.53266150
C        4.26176289       5.64573330      -4.15664521
O        3.70897784       6.32985656      -3.29656710
H        0.57025524       3.55073447      -1.53546686
H        1.94095639       4.95592104      -2.94909062
H        4.62016083       1.60435681      -3.61847598
H        3.19922261       0.21956942      -2.23771938
C       -1.79041159      -1.79041159      -1.79041159
C       -1.70110579      -3.17306755      -1.70173546
C       -2.51207151      -3.98011152      -2.51195647
C       -3.42776355      -3.42641456      -3.42572314
C       -3.49013253      -2.02269284      -3.49140498
C       -2.68215717      -1.21093363      -2.68304077
N       -4.25597860      -4.25979130      -4.25778147
C       -4.82600698      -3.80142794      -5.42903713
O       -4.67443404      -2.72965987      -5.99232901
S       -5.86388397      -5.01057233      -6.15645932
C       -5.30992579      -6.27169784      -5.03303958
H       -6.14348317      -6.85255080      -4.63154962
Br      -4.07432960      -7.47068419      -5.92084261
C       -4.55384898      -5.57802388      -3.93226854
O       -4.29724975      -6.15927501      -2.87887674
H       -1.00303348      -3.64149583      -1.01192727
H       -2.37351218      -5.05403712      -2.41841874
H       -4.18637620      -1.50754960      -4.14906782
H       -2.76599762      -0.12951637      -2.76099741
C       -1.79041159       1.79041159       1.79041159
C       -2.63013569       1.21267419       2.73309892
C       -3.43810515       2.02447249       3.54156185
C       -3.42548172       3.42692434       3.42749519
C       -2.56528922       3.97826234       2.46067878
C       -1.75465414       3.17129826       1.65017916
N       -4.25964809       4.25584977       4.25805350
C       -4.60252081       5.54668505       3.90726619
O       -4.37173561       6.15167596       2.87301135
S       -5.53073786       6.33183458       5.16834318
C       -5.72249613       4.81585371       6.07631338
H       -5.53056695       4.95420187       7.14281477
Br      -7.51177636       4.11129688       5.84278315
C       -4.76407195       3.82160266       5.47846680
O       -4.47728648       2.78410155       6.07401348
H       -2.67374645       0.13242812       2.85028201
H       -4.09601406       1.51165680       4.23829719
H       -2.47027389       5.05246090       2.32025883
H       -1.09926477       3.63840134       0.91884529
C        1.79041159      -1.79041159       1.79041159
C        2.75081307      -1.21420306       2.61089267
C        3.55852270      -2.02593635       3.41968044
C        3.42554048      -3.42675564       3.42760514
C        2.44482482      -3.97689401       2.58251151
C        1.63391167      -3.16989425       1.77232564
N        4.25981113      -4.25600147       4.25773877
C        4.46841983      -5.59511707       3.99293515
O        4.10281031      -6.25781739       3.03579522
S        5.43645909      -6.35497511       5.23948141
C        5.82436821      -4.79410884       5.99618617
H        5.71424983      -4.83090535       7.08242841
Br       7.63704057      -4.26615557       5.56266025
C        4.89967988      -3.77164874       5.39281278
O        4.74776675      -2.66963590       5.91799885
H        2.88941358      -0.13580548       2.63123751
H        4.31214126      -1.51803013       4.01579666
H        2.25365517      -5.04671247       2.54262598
H        0.88343687      -3.63534531       1.13772922
C       -0.00445707       0.01189536      -1.78238275
H       -0.66409135       0.67374010      -2.43557963
H        0.65740317      -0.63156657      -2.45157240
C       -0.90989263      -0.90692880      -0.91072765
C        0.90977584       0.90977584      -0.90977584
C       -0.00465871       1.77757030       0.00794375
H       -0.66225468       2.44313916      -0.64384735
H        0.64322798       2.43503045       0.67728295
C       -1.78241447       0.00034974      -0.00472694
H       -2.45427497      -0.65498947       0.64260836
H       -2.43311707       0.67328779      -0.65473579
C       -0.91132561       0.90220522       0.91563759
C       -0.01476271      -0.02253852       1.78660255
H       -0.67934791      -0.69751639       2.42135241
H        0.63392994       0.61504881       2.47327442
C        0.01484550      -1.77751727      -0.01636693
H        0.67870853      -2.42144646      -0.68295456
H       -0.62264859      -2.45592969       0.64226336
C        1.78714474       0.01002794       0.00389507
H        2.44202412       0.67113390       0.66197326
H        2.45385902      -0.65136977      -0.64189061
C        0.91606151      -0.90478549       0.90901405
