189
Properties=species:S:1:pos:R:3 pbc="F F F"
C        0.00000000       0.00000000       0.00000000
C        5.37729813      12.37931592      -0.44183644
O        5.19285966      11.03148961      -0.02611212
C        4.97074780      10.12316803      -1.02276268
C        4.32490620       8.95675123      -0.61721585
C        4.03169968       7.95047333      -1.54099839
C        4.41867680       8.07544532      -2.88241984
C        5.07107924       9.24859257      -3.28101066
C        5.34720890      10.26685905      -2.35767105
C        4.11328638       7.02362759      -3.85317542
N        3.82733614       7.31530371      -5.14573959
N        3.39109401       6.14855156      -5.68571891
H        3.02940045       6.14602148      -6.63502383
C        3.42945827       5.15401556      -4.78826658
C        2.92777450       3.83695458      -4.63526182
O        2.35533309       3.19093357      -5.49518178
N        3.16770234       3.54586857      -3.26502345
C        2.45292311       2.58333171      -2.49192070
C        1.37813059       1.86156527      -3.03084649
C        0.59163682       1.02167738      -2.23198698
C        0.88079964       0.88079964      -0.88079964
C        1.96587073       1.55092551      -0.32883562
C        2.74957634       2.38937654      -1.13188232
C        4.03557698       4.58113014      -2.61171002
H        3.59971841       4.90157002      -1.66232339
C        5.50810823       4.19907218      -2.49246782
C        6.02869429       3.00896982      -3.03635607
C        7.39055406       2.70080488      -2.93622959
C        8.25511124       3.58022922      -2.29277725
Br      10.09762477       3.17633013      -2.17825247
C        7.76845707       4.75708149      -1.73476871
C        6.40531940       5.05689999      -1.82537027
C        3.98412501       5.63921147      -3.64594034
H        5.38572280      13.00519043       0.45573475
H        4.54935231      12.71495132      -1.07566517
H        6.33961456      12.50872028      -0.94620961
H        4.02453012       8.84178086       0.42153041
H        3.47695764       7.08689214      -1.19109812
H        5.36538875       9.37897949      -4.32106246
H        5.86389228      11.15224977      -2.71249802
H        1.08978147       1.95477534      -4.07379812
H       -0.25264151       0.50158638      -2.67795322
H        2.20679332       1.44022515       0.72527001
H        3.58881381       2.88497335      -0.65247833
H        5.38548291       2.30077926      -3.55592512
H        7.76381793       1.77697636      -3.37092470
H        8.43819228       5.45232082      -1.23490461
H        6.05949285       5.98692308      -1.38064043
C      -12.96462705      -2.07839114      -3.15543229
O      -11.69920601      -1.42950346      -3.12175193
C      -10.60790829      -2.23867431      -3.27009591
C       -9.41961656      -1.71612329      -2.76313343
C       -8.23165567      -2.44691111      -2.84460463
C       -8.20318387      -3.69872198      -3.47463612
C       -9.40050962      -4.21485046      -3.98532239
C      -10.59639387      -3.48989801      -3.88544711
C       -6.96080353      -4.46737280      -3.56191305
N       -6.96144274      -5.82175311      -3.50518360
N       -5.65479418      -6.17398945      -3.39658086
H       -5.41499431      -7.14958632      -3.24586514
C       -4.85824817      -5.09645050      -3.41704173
C       -3.51165714      -4.76120283      -3.12713094
O       -2.62357776      -5.55304102      -2.86482965
N       -3.51529879      -3.33999853      -3.12329704
C       -2.57186079      -2.51757505      -2.43873968
C       -1.56132021      -3.07035971      -1.63886243
C       -0.72551352      -2.26086362      -0.85892404
C       -0.88079964      -0.88079964      -0.88079964
C       -1.84596647      -0.30297278      -1.69669261
C       -2.67909449      -1.11667968      -2.47506102
C       -4.80434028      -2.77752900      -3.64654786
H       -5.18465821      -2.00418819      -2.97476542
C       -4.76265308      -2.33167630      -5.10531885
C       -3.63162362      -2.51931808      -5.92307849
C       -3.63484769      -2.12613964      -7.26660120
C       -4.77142171      -1.54136018      -7.81533583
Br      -4.78475439      -1.03228884      -9.63516414
C       -5.89915162      -1.33156744      -7.02958820
C       -5.88925095      -1.71405649      -5.68428222
C       -5.63599703      -4.00224213      -3.63103766
H      -13.72256473      -1.34248673      -2.87012702
H      -13.00757680      -2.90006836      -2.43232364
H      -13.20298811      -2.42661021      -4.16494613
H       -9.42398935      -0.74311007      -2.27768114
H       -7.34445352      -2.02530060      -2.38519379
H       -9.40950174      -5.19336050      -4.46256846
H      -11.49585326      -3.92728814      -4.30549867
H       -1.41296561      -4.14350757      -1.56188174
H        0.02701152      -2.72662066      -0.22728895
H       -1.96952887       0.77644695      -1.72866654
H       -3.41269501      -0.61449025      -3.09908023
H       -2.72712529      -2.98252864      -5.53253336
H       -2.74833146      -2.28910552      -7.87428202
H       -6.79331900      -0.88011242      -7.45198630
H       -6.78914819      -1.53802399      -5.09988417
C      -10.08134750      -0.82922763       8.94633061
O       -8.76148035      -0.93815189       8.42713293
C       -8.32577477       0.11621305       7.67469069
C       -7.28757980      -0.18331740       6.79461088
C       -6.75576397       0.80493890       5.96246854
C       -7.22580889       2.12391490       6.02681818
C       -8.26616941       2.41767698       6.91683608
C       -8.81322722       1.42113085       7.73738092
C       -6.67139771       3.16195746       5.15673421
N       -7.44183421       4.16907922       4.67746601
N       -6.67009307       4.79971251       3.75555890
H       -7.07615166       5.54156592       3.19272819
C       -5.45451958       4.24108213       3.67613869
C       -4.32897106       4.25664960       2.81437024
O       -4.17174279       5.00437632       1.86532932
N       -3.54423219       3.16328269       3.27107948
C       -2.58459736       2.45634148       2.48723668
C       -2.37386652       2.76179231       1.13488352
C       -1.53467256       1.97717273       0.33345590
C       -0.88079964       0.88079964       0.88079964
C       -1.03767325       0.57964048       2.22831812
C       -1.87765522       1.36748095       3.02569903
C       -4.05227258       2.60719876       4.56894580
H       -4.13108843       1.51874383       4.51377956
C       -3.30312552       3.08826817       5.80825454
C       -2.27644550       4.05023756       5.74733713
C       -1.62808964       4.49328413       6.90621476
C       -1.99859938       3.98332655       8.14619178
Br      -1.14030571       4.59857705       9.71332460
C       -3.00014701       3.02319642       8.23696384
C       -3.63802352       2.57311122       7.07645492
C       -5.37486343       3.27015397       4.62425942
H      -10.34612968      -1.79606824       9.38511704
H      -10.80316130      -0.61415380       8.15096130
H      -10.13236790      -0.07861647       9.74079301
H       -6.90722863      -1.20045389       6.73800582
H       -5.98921549       0.51227007       5.25346234
H       -8.66246463       3.43017158       6.97279448
H       -9.61060841       1.70011149       8.41792017
H       -2.88046176       3.58994491       0.64794825
H       -1.41936584       2.22616620      -0.71863395
H       -0.52307369      -0.27031826       2.66899303
H       -1.96067917       1.09241066       4.07317565
H       -1.96553055       4.48001800       4.79663874
H       -0.84290216       5.24100016       6.82781667
H       -3.29940572       2.62343743       9.20257457
H       -4.41872522       1.82398628       7.18434485
C        1.18491183      -4.25096432      12.76257433
O        0.65530719      -4.14885188      11.44630233
C        1.57243541      -4.11040909      10.43383401
C        1.11279778      -3.53568064       9.25039487
C        1.95439607      -3.42839964       8.14037569
C        3.26099691      -3.93426728       8.18127778
C        3.71381864      -4.51419359       9.37267024
C        2.87540138      -4.60351155      10.49282606
C        4.14570352      -3.82372178       7.02066409
N        5.48146938      -3.64282345       7.16408662
N        5.93972024      -3.37008228       5.91556195
H        6.91288457      -3.10655899       5.79100221
C        4.94781829      -3.40871157       5.01521054
C        4.71034350      -3.01565122       3.67399618
O        5.54987279      -2.59267962       2.89889603
N        3.30183915      -3.14314913       3.53360609
C        2.50456684      -2.44499812       2.57861056
C        3.06398109      -1.49911261       1.70744866
C        2.25991095      -0.71622267       0.86916756
C        0.88079964      -0.88079964       0.88079964
C        0.30238642      -1.84024799       1.70299746
C        1.11071489      -2.62092279       2.53919752
C        2.67907844      -3.84420055       4.70513814
H        1.80977424      -3.28863494       5.06520264
C        2.38944381      -5.32603104       4.48417338
C        2.76256617      -6.00390220       3.30755182
C        2.50926520      -7.37128214       3.14704119
C        1.88103944      -8.08414592       4.16293235
Br       1.56038703      -9.93503538       3.95678496
C        1.48953076      -7.43968987       5.33108663
C        1.73267726      -6.07085011       5.48406230
C        3.81403269      -3.80048321       5.65476093
H        0.35715708      -4.11313094      13.46489046
H        1.92142521      -3.46335316      12.95519043
H        1.61041851      -5.24307332      12.94105261
H        0.09926591      -3.14489508       9.20061957
H        1.57183795      -2.92205611       7.26105384
H        4.73073068      -4.89770152       9.43699849
H        3.26846321      -5.07065888      11.38951798
H        4.13283991      -1.30892915       1.67658586
H        2.72643868       0.02878624       0.22924565
H       -0.77497239      -1.98390947       1.71281138
H        0.60906876      -3.35982188       3.15737485
H        3.26505902      -5.48250468       2.49462359
H        2.81408191      -7.86816713       2.22946996
H        1.00286939      -7.99050722       6.13204111
H        1.41604946      -5.59959080       6.41141610
