153
Properties=species:S:1:pos:R:3 pbc="F F F"
C        0.00000000       0.00000000       0.00000000
C        0.88078286       0.88078286      -0.88078286
C        1.24258729       2.15109285      -0.45150825
C        2.04731987       2.95970140      -1.26508662
C        2.50534364       2.51611180      -2.51799533
C        2.12660555       1.22714717      -2.92097525
C        1.32045243       0.41432988      -2.11241071
N        3.31189962       3.35478581      -3.34412690
C        3.70734668       4.74134988      -2.92735004
H        2.80585656       5.32299141      -2.70455041
C        4.76301565       4.81866469      -1.83989124
C        4.76081142       5.91346295      -0.95542187
C        5.72027737       6.02087415       0.05493878
C        6.69445383       5.03550400       0.19150796
C        6.71967377       3.94513592      -0.67294861
C        5.76053601       3.83824329      -1.68338590
C        4.36826593       5.21828393      -4.15949714
C        4.96325215       6.32332937      -4.77517585
C        5.18130078       7.68377494      -4.23200182
N        5.35488191       6.01375341      -6.02900016
N        4.98860591       4.71577059      -6.19595896
H        5.17494502       4.25711226      -7.08288517
C        4.38592271       4.23439688      -5.09669802
C        3.75952874       3.04245258      -4.65721445
O        3.64696161       2.02473175      -5.31674798
H        0.90687911       2.52672103       0.51171012
H        2.29548164       3.94221998      -0.87716005
H        2.44070293       0.80744425      -3.87170204
H        1.04631424      -0.57783545      -2.46194619
H        4.00958810       6.69589576      -1.04765553
H        5.70040474       6.87483410       0.72735952
H        7.47935516       3.17400190      -0.57252545
H        5.80267383       2.97770533      -2.34895640
H        4.33406116       7.99162287      -3.60977481
H        5.28977329       8.42103548      -5.03450647
H        6.08701718       7.70799732      -3.61797363
C        7.68261906       5.14592360       1.23311106
C        8.51020743       5.23840001       2.10545365
Br       9.84834784       5.38792654       3.51595784
C       -0.88078286      -0.88078286      -0.88078286
C       -1.24983915      -0.44765504      -2.14769420
C       -2.06324922      -1.25662270      -2.95223597
C       -2.52101506      -2.50966845      -2.50876725
C       -2.12732792      -2.92059143      -1.22680863
C       -1.31530980      -2.11514320      -0.41674002
N       -3.36146493      -3.31779080      -3.33155659
C       -3.80075782      -2.87771684      -4.69757194
H       -4.30502500      -1.90798026      -4.62039312
C       -2.72955035      -2.92035539      -5.77166583
C       -2.78771478      -2.00380966      -6.83817180
C       -1.82173832      -2.01651614      -7.84795828
C       -0.78715424      -2.94728446      -7.80401118
C       -0.70996312      -3.86615625      -6.76163893
C       -1.67620859      -3.85355785      -5.75239875
C       -4.75101907      -3.95612459      -5.03890335
C       -5.67895382      -4.39489398      -5.98790958
C       -6.07134101      -3.75908666      -7.26664986
N       -6.24301569      -5.55709798      -5.59752181
N       -5.67257669      -5.83253702      -4.39522175
H       -5.95208343      -6.66995942      -3.89289961
C       -4.79425512      -4.87973414      -4.04302835
C       -3.94716773      -4.55751410      -2.95451394
O       -3.81601276      -5.22692411      -1.94550446
H       -0.91406686       0.51552927      -2.52335243
H       -2.31964376      -0.86432171      -3.93089619
H       -2.43392265      -3.87530469      -0.81062189
H       -1.03434582      -2.46830551       0.57222634
H       -3.59035609      -1.27041082      -6.89237248
H       -1.88549408      -1.29966018      -8.66272506
H        0.09422596      -4.59668211      -6.72342636
H       -1.59611813      -4.58407330      -4.94914414
H       -6.10414918      -2.66925389      -7.16205576
H       -7.06326303      -4.09217808      -7.58987413
H       -5.35168893      -4.00868392      -8.05261528
C        0.20856609      -2.95980175      -8.84419595
C        1.04248187      -2.97028498      -9.71535068
Br       2.39085315      -2.98723548     -11.12393422
C       -0.88078286       0.88078286       0.88078286
C       -1.36817153       2.08567539       0.39134147
C       -2.17257252       2.89493888       1.20459649
C       -2.50526869       2.51702003       2.51716204
C       -2.00147923       1.29276679       2.98048196
C       -1.19498793       0.47980154       2.17240356
N       -3.31289006       3.35701501       3.34090725
C       -3.84173611       4.67609494       2.85821555
H       -3.00543121       5.30151912       2.52644805
C       -4.97473914       4.59494702       1.85188541
C       -5.11899794       5.61633034       0.89436796
C       -6.15315086       5.57783532      -0.04477344
C       -7.05639509       4.51825914      -0.03620435
C       -6.93678548       3.49811870       0.90285412
C       -5.90299315       3.53711203       1.84206002
C       -4.44805020       5.19769141       4.10030539
C       -5.08055155       6.30153630       4.67966952
C       -5.43994163       7.59757060       4.05956531
N       -5.35739351       6.06168246       5.97855951
N       -4.88206064       4.80953663       6.20873820
H       -4.96937812       4.40794219       7.13762215
C       -4.32389396       4.28954785       5.10357579
C       -3.64100898       3.11497384       4.70321295
O       -3.40446079       2.16120167       5.42277888
H       -1.13136858       2.40946311      -0.61894167
H       -2.52200780       3.82483581       0.76801805
H       -2.21430723       0.92572384       3.97981816
H       -0.82170543      -0.46078006       2.56949961
H       -4.42512702       6.45486332       0.87314905
H       -6.24638011       6.37715484      -0.77565563
H       -7.64051314       2.66959665       0.91577272
H       -5.83189109       2.72914653       2.56829794
H       -4.66501486       7.91631591       3.35412806
H       -5.54721307       8.38444629       4.81365588
H       -6.38615017       7.51044706       3.51639089
C       -8.12153813       4.47833130      -1.00443783
C       -9.01359543       4.44489173      -1.81533336
Br     -10.45597663       4.39082278      -3.12648287
C        0.88078286      -0.88078286       0.88078286
C        1.38186486      -0.38562647       2.07769706
C        2.19489181      -1.19528140       2.88193468
C        2.52087406      -2.51064905       2.50792766
C        1.99575208      -2.98287222       1.29610368
C        1.18340162      -2.17723917       0.48655223
N        3.36230972      -3.32028166       3.32822094
C        3.94170049      -2.81649482       4.61785129
H        4.50893323      -1.89895254       4.42551261
C        2.96025092      -2.69264406       5.76867660
C        3.17218477      -1.70688202       6.75062945
C        2.29238344      -1.56654081       7.82728849
C        1.19118342      -2.41167663       7.93558983
C        0.96210734      -3.39642158       6.97922938
C        1.84221199      -3.53685119       5.90310202
C        4.83339514      -3.93947939       4.97317247
C        5.79945669      -4.37963018       5.88267050
C        6.33977565      -3.68401423       7.07328767
N        6.24213256      -5.60930841       5.54619451
N        5.55782807      -5.92670264       4.41580476
H        5.73284178      -6.81898605       3.96311463
C        4.72741031      -4.93516585       4.05444145
C        3.82179713      -4.62775994       3.00963870
O        3.56034722      -5.35771875       2.07037537
H        1.15009377       0.62675674       2.39855299
H        2.55774494      -0.75310295       3.80401378
H        2.19588968      -3.98750484       0.93645471
H        0.79821239      -2.57930457      -0.44709198
H        4.02896759      -1.03848854       6.68568325
H        2.47473638      -0.79846232       8.57468062
H        0.10528720      -4.06064409       7.05995122
H        1.64353240      -4.31633436       5.16946881
H        6.44513027      -2.61118631       6.87914226
H        7.32692917      -4.07088078       7.34750530
H        5.66915140      -3.81563460       7.92820213
C        0.28427899      -2.26648889       9.04466371
C       -0.47525346      -2.14489416       9.97351309
Br      -1.70335320      -1.94828577      11.47538398
