145
Properties=species:S:1:pos:R:3 pbc="F F F"
C        0.00000000       0.00000000       0.00000000
C        0.88078286       0.88078286      -0.88078286
C        1.24258729       2.15109285      -0.45150825
C        2.04731987       2.95970140      -1.26508662
C        2.50534364       2.51611180      -2.51799533
C        2.12660555       1.22714717      -2.92097525
C        1.32045243       0.41432988      -2.11241071
N        3.31189962       3.35478581      -3.34412690
C        3.70734668       4.74134988      -2.92735004
H        2.80585656       5.32299141      -2.70455041
C        4.76301565       4.81866469      -1.83989124
C        4.76081142       5.91346295      -0.95542187
C        5.72027737       6.02087415       0.05493878
C        6.69445383       5.03550400       0.19150796
Br       7.99142983       5.18043074       1.55862166
C        6.71967377       3.94513592      -0.67294861
C        5.76053601       3.83824329      -1.68338590
C        4.36826593       5.21828393      -4.15949714
C        4.96325215       6.32332937      -4.77517585
C        5.18130078       7.68377494      -4.23200182
N        5.35488191       6.01375341      -6.02900016
N        4.98860591       4.71577059      -6.19595896
H        5.17494502       4.25711226      -7.08288517
C        4.38592271       4.23439688      -5.09669802
C        3.75952874       3.04245258      -4.65721445
O        3.64696161       2.02473175      -5.31674798
H        0.90687911       2.52672103       0.51171012
H        2.29548164       3.94221998      -0.87716005
H        2.44070293       0.80744425      -3.87170204
H        1.04631424      -0.57783545      -2.46194619
H        4.00958810       6.69589576      -1.04765553
H        5.70040474       6.87483410       0.72735952
H        7.47935516       3.17400190      -0.57252545
H        5.80267383       2.97770533      -2.34895640
H        4.33406116       7.99162287      -3.60977481
H        5.28977329       8.42103548      -5.03450647
H        6.08701718       7.70799732      -3.61797363
C       -0.88078286      -0.88078286      -0.88078286
C       -1.50410523      -0.34216497      -1.99891818
C       -2.31670600      -1.15245358      -2.80294831
C       -2.52061467      -2.51161035      -2.50722574
C       -1.87386291      -3.02664949      -1.37421558
C       -1.06125278      -2.22078468      -0.56515556
N       -3.36268499      -3.32289303      -3.32523431
C       -4.07149297      -2.77509682      -4.52945681
H       -4.68550132      -1.91865209      -4.22924497
C       -3.19066645      -2.49730621      -5.73359892
C       -3.54454616      -1.46395457      -6.62119550
C       -2.76039381      -1.18261822      -7.74320071
C       -1.61399177      -1.93268419      -7.99177392
Br      -0.55305253      -1.55143850      -9.50874789
C       -1.24506096      -2.96193914      -7.13075820
C       -2.02954890      -3.24334903      -6.00926727
C       -4.90655774      -3.93443194      -4.90505733
C       -5.90520151      -4.38133738      -5.77521848
C       -6.58112216      -3.64672246      -6.86923291
N       -6.23401641      -5.66142521      -5.50219386
N       -5.44591205      -6.00475468      -4.44966874
H       -5.52336469      -6.93720742      -4.05437036
C       -4.66213426      -4.98121121      -4.07367215
C       -3.70412013      -4.68038134      -3.07469430
O       -3.32212626      -5.45256490      -2.21375019
H       -1.36867457       0.70479143      -2.25800689
H       -2.77810773      -0.67536924      -3.66138470
H       -1.97544724      -4.06623011      -1.07817188
H       -0.57957219      -2.65709572       0.30624293
H       -4.43871352      -0.86823388      -6.44619198
H       -3.05192021      -0.37999843      -8.41596068
H       -0.35233768      -3.55240295      -7.32114188
H       -1.72202049      -4.05511849      -5.35219658
H       -6.74644743      -2.60113191      -6.58787949
H       -7.55659887      -4.08672396      -7.10199241
H       -5.96927026      -3.66720479      -7.77651307
C       -0.88078286       0.88078286       0.88078286
C       -2.10071414       1.34153886       0.40293539
C       -2.90503597       2.15469121       1.21238071
C       -2.50817526       2.52093222       2.51034328
C       -1.27330303       2.03594832       2.96547662
C       -0.46359215       1.22369374       2.15990713
N       -3.32922786       3.36209937       3.31948509
C       -4.64391013       3.89873339       2.83340308
H       -4.48689226       4.44808430       1.89842182
C       -5.77337606       2.88781521       2.76038031
C       -6.78303809       3.05283165       1.79382649
C       -7.84121340       2.14485021       1.70014913
C       -7.90309304       1.06206649       2.57329035
Br      -9.33377203      -0.16637334       2.44584022
C       -6.91862029       0.87929164       3.53984636
C       -5.86098159       1.78756588       3.63361773
C       -4.99409968       4.80859838       3.94334894
C       -5.91598819       5.76333307       4.38243610
C       -7.13528088       6.25862774       3.70316892
N       -5.56145915       6.24325762       5.59291871
N       -4.40778269       5.59354167       5.89901110
H       -3.93859247       5.80056704       6.77578295
C       -4.04994015       4.74822418       4.91885328
C       -2.99115876       3.86027772       4.60775929
O       -2.02898165       3.63861415       5.32084554
H       -2.43960114       1.07799603      -0.59570714
H       -3.84571624       2.48502987       0.78411555
H       -0.89506582       2.26860065       3.95618276
H        0.48824158       0.87033806       2.54832850
H       -6.75445386       3.89457095       1.10411457
H       -8.61062019       2.29105302       0.94620611
H       -6.96306836       0.03704395       4.22577019
H       -5.10466504       1.62499677       4.39967375
H       -6.96899129       6.34266738       2.62380017
H       -7.42400818       7.24808876       4.07321831
H       -7.97048005       5.57146059       3.87104748
C        0.88078286      -0.88078286       0.88078286
C        0.34859063      -1.48328007       2.01331769
C        1.16148350      -2.28744056       2.82318383
C        2.51633131      -2.50531432       2.51780513
C        3.02264279      -1.88684838       1.36523680
C        2.21499881      -1.08000446       0.55218976
N        3.33786584      -3.31415898       3.35878750
C        2.80778883      -3.96554008       4.60271768
H        2.37725113      -3.19920887       5.25693838
C        1.89155186      -5.15388059       4.37613913
C        0.88134059      -5.43276372       5.31559192
C        0.02218231      -6.52129819       5.14273224
C        0.16439731      -7.34490529       4.02914727
Br      -0.99826364      -8.81648685       3.79501570
C        1.15789513      -7.09186123       3.08800194
C        2.01711021      -6.00371662       3.26133837
C        4.05249036      -4.52393736       5.16961929
C        4.60101566      -5.19323715       6.26750456
C        3.92371963      -5.68339068       7.48996723
N        5.92920050      -5.36617247       6.10226251
N        6.20731174      -4.78943657       4.90358716
H        7.16450283      -4.78671365       4.56372598
C        5.10219163      -4.27004383       4.34478214
C        4.73293583      -3.53379415       3.19246580
O        5.49533110      -3.18352351       2.30958673
H       -0.69504593      -1.33708998       2.27984598
H        0.69029971      -2.72971895       3.69484300
H        4.05654307      -2.00684237       1.05646378
H        2.64590526      -0.61583982      -0.33132009
H        0.75590320      -4.80277065       6.19446554
H       -0.75141276      -6.71875719       5.88053490
H        1.27510703      -7.73291950       2.21785599
H        2.78821599      -5.82797683       2.51314275
H        3.14582377      -4.98113323       7.80850183
H        4.62995920      -5.79600550       8.31935055
H        3.45567020      -6.65484141       7.30247652
