154
Properties=species:S:1:pos:R:3 pbc="F F F"
C        1.23104107       6.01911726      -3.42405624
C        1.30257376       4.70094169      -4.17785950
C        2.01070628       3.62958328      -3.37686855
C        1.21816082       2.81595872      -2.54157473
C        1.79177345       1.79177345      -1.79177345
C        3.16030960       1.56730902      -1.84599418
C        3.95959605       2.36898523      -2.66525475
C        3.40240143       3.39398898      -3.44357804
N        4.20839227       4.19970882      -4.28027486
C        5.42165776       3.83434655      -4.84663470
O        5.96514409       2.74664661      -4.70922203
N        5.89816803       4.85927287      -5.64459418
C        6.91262133       4.79799350      -6.62909543
C        7.50068783       3.59675136      -7.03954782
C        8.45818168       3.58107947      -8.05865987
C        8.83833804       4.76498544      -8.68542663
C        8.26460228       5.97167400      -8.29011560
C        7.30936016       5.98690047      -7.26958920
Br       6.55169261       7.66720369      -6.79321031
H        0.74246353       6.78162909      -4.04060137
H        2.22775074       6.38654332      -3.15486798
H        0.65121615       5.91412850      -2.49867004
H        1.78429656       4.84393461      -5.14972779
H        0.28605020       4.36699632      -4.41694688
H        0.14390038       2.98021486      -2.48884511
H        3.62121678       0.77628764      -1.26119420
H        5.02994584       2.17855194      -2.66750677
H        3.75487249       4.97501753      -4.73635318
H        5.55732428       5.78874690      -5.43712925
H        7.22497055       2.64513683      -6.59357717
H        8.90047904       2.63618598      -8.36531462
H        9.57771029       4.74606209      -9.48249961
H        8.56348701       6.89134633      -8.78660936
C       -0.96866542      -5.69901360      -4.00653555
C       -1.28573043      -4.32390147      -4.57174305
C       -2.00222867      -3.45037464      -3.56455480
C       -1.20658784      -2.64191954      -2.72718688
C       -1.79177345      -1.79177345      -1.79177345
C       -3.17250607      -1.74024333      -1.66086340
C       -3.97408640      -2.53961460      -2.48013504
C       -3.40864586      -3.38943496      -3.44188763
N       -4.21861127      -4.19166988      -4.27809480
C       -5.52815997      -3.92319543      -4.65128362
O       -6.16953541      -2.93702431      -4.31445301
N       -5.98364301      -4.90347388      -5.51491819
C       -7.11647811      -4.86153246      -6.36169969
C       -7.88504036      -3.70697628      -6.54497037
C       -8.96102295      -3.69871848      -7.43817959
C       -9.28152809      -4.84269782      -8.16452420
C       -8.52841016      -6.00273991      -7.99524181
C       -7.45451491      -6.01100881      -7.10032612
Br      -6.45596380      -7.62323764      -6.93290517
H       -0.47987263      -6.31742507      -4.76739629
H       -1.87428903      -6.21959718      -3.67527582
H       -0.29050514      -5.62625512      -3.14725444
H       -1.86889359      -4.41621980      -5.49284557
H       -0.35291618      -3.83717799      -4.87989925
H       -0.12280447      -2.67175958      -2.81839630
H       -3.64135498      -1.08658373      -0.93075991
H       -5.05050822      -2.48921836      -2.33627797
H       -3.74229310      -4.84542420      -4.87852590
H       -5.51559174      -5.79897587      -5.46863281
H       -7.66425428      -2.78471854      -6.01471172
H       -9.54351662      -2.78978546      -7.56867755
H      -10.11447160      -4.82845083      -8.86334957
H       -8.78213893      -6.89076353      -8.56854024
C       -6.31304100       1.95146706       2.40970651
C       -5.39071645       2.99325605       1.79740246
C       -3.95688095       2.81293392       2.24734325
C       -3.12988804       1.98762178       1.45818443
C       -1.79177345       1.79177345       1.79177345
C       -1.25619212       2.39774208       2.91967859
C       -2.06490330       3.21427169       3.71466104
C       -3.40990177       3.44140469       3.38866198
N       -4.22685343       4.27492545       4.18659708
C       -3.79236118       5.31874894       4.99152889
O       -2.62868528       5.67601329       5.11631415
N       -4.87658963       5.94061254       5.58483290
C       -4.91811065       7.20703618       6.21456343
C       -3.84123453       8.09993181       6.19582067
C       -3.95092914       9.36470698       6.78228491
C       -5.13983773       9.75712510       7.39178728
C       -6.22339529       8.88158734       7.42140925
C       -6.11220284       7.61648431       6.83716269
Br      -7.63738822       6.47861298       6.89610541
H       -7.34649262       2.12698037       2.09122099
H       -6.28512946       1.97917886       3.50485371
H       -6.03177261       0.93956942       2.09267266
H       -5.74835157       4.00108068       2.02852671
H       -5.44272104       2.92272064       0.70455173
H       -3.53591446       1.50595583       0.57109006
H       -0.21599760       2.24790986       3.19479117
H       -1.61806370       3.65615313       4.60178772
H       -5.20411767       4.31641166       3.94571387
H       -5.72042695       5.38986769       5.67290578
H       -2.89895967       7.84710666       5.71761820
H       -3.10320245      10.04516643       6.75361075
H       -5.22213510      10.74459583       7.83954107
H       -7.14953503       9.19632412       7.89558355
C        6.30015271      -1.86202087       2.51204099
C        5.41689933      -2.91003932       1.85443631
C        3.96925897      -2.77334494       2.27455421
C        3.14143621      -1.94892173       1.48533632
C        1.79177345      -1.79177345       1.79177345
C        1.24481593      -2.43624925       2.89254761
C        2.05402646      -3.25245174       3.68735783
C        3.41113077      -3.44088811       3.38794957
N        4.22890911      -4.27395264       4.18551421
C        3.80070570      -5.34612744       4.95580587
O        2.64319433      -5.73287339       5.04494501
N        4.88534039      -5.95669474       5.55999995
C        4.94215422      -7.23629045       6.16126560
C        3.88729160      -8.15300776       6.09668765
C        4.01319759      -9.42837174       6.65635170
C        5.19668715      -9.80759318       7.28446979
C        6.25838584      -8.90832670       7.35967934
C        6.13092415      -7.63272162       6.80220407
Br       7.62716814      -6.46180494       6.92313353
H        7.34449191      -2.00620115       2.21400093
H        6.24774285      -1.91611643       3.60530275
H        6.00252210      -0.84967713       2.21181547
H        5.79273369      -3.91453689       2.07068838
H        5.49232925      -2.81264368       0.76502048
H        3.55629887      -1.43732217       0.61933930
H        0.19533814      -2.31687101       3.14648948
H        1.59743623      -3.72522690       4.55334142
H        5.21215584      -4.28729459       3.96679278
H        5.71374432      -5.38892876       5.68052734
H        2.95056846      -7.91072457       5.60239150
H        3.18259231     -10.12726858       6.59211875
H        5.29187603     -10.80316982       7.71122615
H        7.18053129      -9.21276406       7.84814735
C       -0.00445707       0.01189536      -1.78238275
H       -0.66409135       0.67374010      -2.43557963
H        0.65740317      -0.63156657      -2.45157240
C       -0.90989263      -0.90692880      -0.91072765
C        0.90977584       0.90977584      -0.90977584
C       -0.00465871       1.77757030       0.00794375
H       -0.66225468       2.44313916      -0.64384735
H        0.64322798       2.43503045       0.67728295
C       -1.78241447       0.00034974      -0.00472694
H       -2.45427497      -0.65498947       0.64260836
H       -2.43311707       0.67328779      -0.65473579
C       -0.91132561       0.90220522       0.91563759
C       -0.01476271      -0.02253852       1.78660255
H       -0.67934791      -0.69751639       2.42135241
H        0.63392994       0.61504881       2.47327442
C        0.01484550      -1.77751727      -0.01636693
H        0.67870853      -2.42144646      -0.68295456
H       -0.62264859      -2.45592969       0.64226336
C        1.78714474       0.01002794       0.00389507
H        2.44202412       0.67113390       0.66197326
H        2.45385902      -0.65136977      -0.64189061
C        0.91606151      -0.90478549       0.90901405
