113
Properties=species:S:1:pos:R:3 pbc="F F F"
C        0.00000000       0.00000000       0.00000000
C        1.23628554       4.11040009      -3.79454554
C        1.93377054       3.90762346      -2.46139038
N        1.70415178       2.57834692      -1.92590375
C        0.71258579       2.21764883      -1.06547888
C        0.87085342       0.87085342      -0.87085342
C        1.99186645       0.48215111      -1.64264056
N        2.50947869       1.55771928      -2.28639129
C        2.59314692      -0.85634694      -1.80315857
O        2.12886732      -1.85587159      -1.26529933
N        3.71204989      -0.82947193      -2.61491524
C        4.52970688      -1.90294299      -3.01570355
C        4.30337550      -3.23426128      -2.65977030
C        5.16378995      -4.24296109      -3.11159164
C        6.25425946      -3.92227327      -3.91882957
Br       7.40748328      -5.29134667      -4.52455082
C        6.49671269      -2.60222336      -4.28166783
C        5.63297393      -1.60877731      -3.82844080
F        5.87259382      -0.33628930      -4.18462436
H        1.41127400       5.12472893      -4.16578300
H        0.15500685       3.96259348      -3.70060300
H        1.60502307       3.40266405      -4.54446723
H        1.56793083       4.63016720      -1.72351365
H        3.01581803       4.04595941      -2.56008796
H       -0.00863976       2.92615915      -0.68332881
H        3.95766216       0.09979755      -2.95762936
H        3.46423426      -3.52616540      -2.03595241
H        4.96781788      -5.27401291      -2.82556989
H        7.33952158      -2.33122653      -4.90820244
C       -1.22762552      -3.99371540      -3.91989025
C       -1.87205232      -3.88083387      -2.54989819
N       -1.67627656      -2.56699960      -1.96512629
C       -0.66328371      -2.19936621      -1.13306358
C       -0.87085342      -0.87085342      -0.87085342
C       -2.04153679      -0.50028376      -1.57483756
N       -2.54065921      -1.56927756      -2.24365249
C       -2.70699733       0.81526107      -1.64822230
O       -2.26260646       1.81053692      -1.08622552
N       -3.85935421       0.77290336      -2.41104236
C       -4.74016409       1.82455405      -2.72685740
C       -4.55590370       3.14806859      -2.32104940
C       -5.47889120       4.13535056      -2.68887986
C       -6.58991576       3.80085350      -3.46175349
Br      -7.82775541       5.14119263      -3.95412466
C       -6.79106845       2.48815333      -3.87324205
C       -5.86536136       1.51618485      -3.50346091
F       -6.06544832       0.25079254      -3.90627309
H       -1.37509427      -4.99787236      -4.32881929
H       -0.15063187      -3.80122215      -3.86634931
H       -1.66036975      -3.27156139      -4.62022319
H       -1.44210405      -4.61737514      -1.86213248
H       -2.95043994      -4.06370367      -2.60772178
H        0.10460198      -2.89034211      -0.81510807
H       -4.07970457      -0.15080381      -2.78458070
H       -3.70278388       3.45039611      -1.72163350
H       -5.31507194       5.16084742      -2.36515034
H       -7.64887920       2.20664337      -4.47426165
C       -4.50773202       3.25697867       1.37652048
C       -3.94634261       2.13068282       2.22575894
N       -2.59322384       1.77981067       1.83536794
C       -2.23775937       0.81486106       0.94309307
C       -0.87085342       0.87085342       0.87085342
C       -0.46288470       1.89388414       1.75988928
N       -1.54501570       2.44487267       2.36370089
C        0.89885467       2.37696725       2.06184598
O        1.89564174       1.92661009       1.50732671
N        0.89630422       3.37216392       3.02163351
C        1.98998812       4.08702539       3.54543017
C        3.31140722       3.91103788       3.12925386
C        4.33943258       4.67316925       3.69868382
C        4.04860021       5.61180424       4.68761172
Br       5.44301402       6.63615548       5.44754597
C        2.73934779       5.79934515       5.11615980
C        1.72583736       5.03764694       4.54082784
F        0.46347475       5.22577254       4.95863109
H       -5.53317099       3.48846938       1.68014556
H       -4.51877324       2.98354519       0.31588490
H       -3.90629575       4.16632014       1.47953845
H       -4.56395614       1.23120422       2.12645132
H       -3.92691052       2.41037647       3.28457841
H       -2.96610598       0.19451606       0.44022616
H       -0.03006291       3.60301582       3.38201035
H        3.57942535       3.19337256       2.36007406
H        5.36149934       4.52289209       3.35798210
H        2.49164891       6.52366874       5.88447765
C        4.16308649      -3.73408546       1.24405922
C        3.91788807      -2.42040368       1.96449263
N        2.58264158      -1.90775644       1.71800443
C        2.22443369      -1.03424805       0.73703176
C        0.87085342      -0.87085342       0.87085342
C        0.47544559      -1.67396586       1.96724666
N        1.55343025      -2.30614076       2.49401825
C       -0.87150061      -1.87472916       2.53673001
O       -1.87234350      -1.34795392       2.06268463
N       -0.85062583      -2.70916823       3.63895081
C       -1.93206247      -3.14918687       4.42534304
C       -3.26563201      -2.81612626       4.17839026
C       -4.28213250      -3.30671977       5.00783322
C       -3.96708105      -4.12997582       6.08792098
Br      -5.34659939      -4.78801693       7.19926989
C       -2.64496228      -4.47051101       6.35060844
C       -1.64366991      -3.97875729       5.51755003
F       -0.36917413      -4.31356301       5.77653999
H        5.18118746      -4.08790641       1.43269205
H        4.03569024      -3.62043820       0.16207489
H        3.46385615      -4.50606858       1.58222960
H        4.63211378      -1.66021561       1.62928229
H        4.03590215      -2.53901568       3.04694756
H        2.93947035      -0.62242854       0.03894931
H        0.08039317      -3.03772364       3.89697227
H       -3.55323461      -2.18091503       3.34634085
H       -5.31471922      -3.03798031       4.79611376
H       -2.37827632      -5.10894681       7.18582699
