110
Properties=species:S:1:pos:R:3 pbc="F F F"
C        1.79136644       1.79136644      -1.79136644
C        3.11071009       1.41784167      -2.04344947
C        3.92452118       2.21813698      -2.85505205
C        3.42151278       3.39238152      -3.41861980
N        4.16527478       4.24915701      -4.25134896
C        5.48412253       4.12906640      -4.64925513
O        6.24347599       3.22337707      -4.32872623
C        5.90295866       5.24076758      -5.52519040
N        5.01203502       6.17877915      -5.93076637
N        5.73421069       7.00802842      -6.70746416
H        5.26274400       7.79745015      -7.13908831
C        7.04697545       6.66386466      -6.80649736
C        7.18385252       5.52651339      -6.05569810
Br       8.77317625       4.57410641      -5.79291218
C        2.09273080       3.74595279      -3.14607087
F        1.58618419       4.87309808      -3.67147328
C        1.27446050       2.95979434      -2.33933198
H        3.52153302       0.50530510      -1.61703659
H        4.94520716       1.89072411      -3.02779931
H        3.68995573       5.07301382      -4.62002049
H        7.74929100       7.24423999      -7.38755354
H        0.25157988       3.26950612      -2.15367236
C       -1.79136644      -1.79136644      -1.79136644
C       -2.93309822      -1.25438280      -2.38452020
C       -3.74437752      -2.05473751      -3.19859518
C       -3.41572644      -3.39291314      -3.42387453
N       -4.16821937      -4.26443075      -4.23313062
C       -5.33852654      -4.00242369      -4.92149382
O       -5.92850963      -2.92944221      -4.93762744
C       -5.82647732      -5.18541088      -5.65702844
N       -5.10213032      -6.33102790      -5.68842231
N       -5.83783040      -7.16780985      -6.44406303
H       -5.47956803      -8.10236072      -6.61735371
C       -7.00659469      -6.62709995      -6.88364283
C       -7.02466430      -5.34848120      -6.39291851
Br      -8.39136974      -4.09668099      -6.65214411
C       -2.26422913      -3.90797724      -2.81254809
F       -1.92873357      -5.19329890      -3.00872308
C       -1.45086529      -3.12303602      -1.99968551
H       -3.20559432      -0.21343277      -2.22484761
H       -4.62327760      -1.59758024      -3.64287273
H       -3.82480802      -5.21912152      -4.33906050
H       -7.70394732      -7.18610764      -7.49102956
H       -0.56830982      -3.56079138      -1.54565716
C       -1.79136644       1.79136644       1.79136644
C       -1.35955326       3.06951979       2.14292816
C       -2.16426672       3.88645304       2.94699045
C       -3.40334867       3.42926286       3.39990258
N       -4.27772291       4.18546126       4.20259657
C       -4.09743428       5.46176926       4.70324052
O       -3.11107854       6.16411871       4.52038203
C       -5.24868574       5.90855414       5.51167676
N       -6.36065334       5.14055887       5.62036833
N       -7.18354611       5.85824264       6.40791453
H       -8.10006625       5.47659176       6.62262445
C       -6.65148753       7.03822898       6.82762095
C       -5.40501003       7.09799052       6.26306345
Br      -4.17191994       8.48896573       6.47930917
C       -3.81144359       2.13901076       3.03430012
F       -4.99638386       1.67330576       3.46106594
C       -3.01964986       1.31675822       2.23717874
H       -0.39918415       3.44654122       1.79814933
H       -1.79195558       4.87541104       3.19636396
H       -5.16560046       3.75538333       4.46200626
H       -7.19332827       7.71331355       7.47444271
H       -3.37299744       0.32471342       1.97704751
C        1.79136644      -1.79136644       1.79136644
C        1.44159102      -3.12365782       2.00675238
C        2.24737005      -3.94045854       2.80988162
C        3.40576678      -3.42881018       3.39793714
N        4.27581676      -4.17980921       4.21015479
C        4.16436459      -5.50336649       4.59471298
O        3.25673619      -6.26166280       4.27718029
C        5.28335870      -5.92617860       5.45937933
N        6.31602546      -5.08685930       5.71869578
N        7.13288497      -5.80228030       6.51453800
H        7.99533714      -5.37062852       6.83331680
C        6.67012183      -7.05038675       6.79682889
C        5.47990839      -7.15844428       6.12771133
Br       4.35375216      -8.65304297       6.13339971
C        3.73204743      -2.08514984       3.16755719
F        4.83794750      -1.56702071       3.72578734
C        2.93813080      -1.26264992       2.37280610
H        0.54516238      -3.54326252       1.55544980
H        1.94051657      -4.97235314       2.95086086
H        5.10235682      -3.70595301       4.57468021
H        7.21498511      -7.73334175       7.43275767
H        3.22671090      -0.22824867       2.21979879
C       -0.00445707       0.01189536      -1.78238275
H       -0.66409135       0.67374010      -2.43557963
H        0.65740317      -0.63156657      -2.45157240
C       -0.90989263      -0.90692880      -0.91072765
C        0.90977584       0.90977584      -0.90977584
C       -0.00465871       1.77757030       0.00794375
H       -0.66225468       2.44313916      -0.64384735
H        0.64322798       2.43503045       0.67728295
C       -1.78241447       0.00034974      -0.00472694
H       -2.45427497      -0.65498947       0.64260836
H       -2.43311707       0.67328779      -0.65473579
C       -0.91132561       0.90220522       0.91563759
C       -0.01476271      -0.02253852       1.78660255
H       -0.67934791      -0.69751639       2.42135241
H        0.63392994       0.61504881       2.47327442
C        0.01484550      -1.77751727      -0.01636693
H        0.67870853      -2.42144646      -0.68295456
H       -0.62264859      -2.45592969       0.64226336
C        1.78714474       0.01002794       0.00389507
H        2.44202412       0.67113390       0.66197326
H        2.45385902      -0.65136977      -0.64189061
C        0.91606151      -0.90478549       0.90901405
