89
Properties=species:S:1:pos:R:3 pbc="F F F"
C        0.00000000       0.00000000       0.00000000
C        0.88146241       0.88146241      -0.88146241
C        2.20080606       0.50793764      -1.13354544
C        3.01461716       1.30823295      -1.94514803
C        2.51160875       2.48247750      -2.50871578
N        3.25537076       3.33925298      -3.34144494
C        4.57421851       3.21916238      -3.73935110
O        5.33357196       2.31347304      -3.41882220
C        4.99305463       4.33086355      -4.61528637
N        4.10213100       5.26887513      -5.02086234
N        4.82430667       6.09812440      -5.79756014
H        4.35283997       6.88754613      -6.22918428
C        6.13707142       5.75396064      -5.89659334
C        6.27394849       4.61660937      -5.14579407
Br       7.86327223       3.66420238      -4.88300816
C        1.18282678       2.83604877      -2.23616685
F        0.67628017       3.96319406      -2.76156925
C        0.36455648       2.04989031      -1.42942796
H        2.61162900      -0.40459893      -0.70713256
H        4.03530314       0.98082008      -2.11789529
H        2.78005170       4.16310980      -3.71011647
H        6.83938698       6.33433596      -6.47764952
H       -0.65832415       2.35960210      -1.24376834
C       -0.88146241      -0.88146241      -0.88146241
C       -0.72938988      -0.84602978      -2.26686948
C       -1.53045336      -1.65514147      -3.08240330
C       -2.48383741      -2.50328924      -2.51567538
N       -3.32302245      -3.35466412      -3.25838210
C       -3.39334744      -3.50860815      -4.63077639
O       -2.71024840      -2.90622311      -5.44939570
C       -4.41119834      -4.50159128      -5.02641494
N       -5.08723450      -5.21335219      -4.09128178
N       -5.90453330      -6.00863711      -4.80682079
H       -6.51187795      -6.65106168      -4.30663076
C       -5.80391052      -5.83149348      -6.15222139
C       -4.84660755      -4.86689075      -6.32285363
Br      -4.26624738      -4.18014721      -7.96408818
C       -2.61802868      -2.51660622      -1.12040750
F       -3.53114674      -3.31941200      -0.55048475
C       -1.82904972      -1.71559087      -0.29923416
H        0.00956752      -0.19494909      -2.72878106
H       -1.37908073      -1.59886774      -4.15607004
H       -3.97297866      -3.94321516      -2.73708415
H       -6.40726771      -6.39321314      -6.85089161
H       -1.96489892      -1.75634779       0.77620042
C       -0.88146241       0.88146241       0.88146241
C       -0.30555298       1.62897786       1.90775830
C       -1.10627740       2.44400139       2.71771934
C       -2.48400726       2.51593100       2.50286377
N       -3.36003358       3.31408534       3.26194975
C       -3.06345516       4.13427521       4.33500161
O       -1.94893593       4.30358975       4.81334153
C       -4.26456093       4.80571973       4.86892391
N       -5.46769736       4.66389373       4.26027737
N       -6.30554189       5.41035489       5.00409443
H       -7.28074655       5.46380901       4.72501482
C       -5.70850011       6.00862488       6.07050041
C       -4.39148917       5.63788212       6.00698065
Br      -3.05432754       6.14009995       7.21605527
C       -3.03728122       1.75139948       1.46636169
F       -4.36038314       1.79851895       1.24214139
C       -2.25213906       0.93600066       0.65573503
H        0.76614225       1.59010560       2.09019927
H       -0.61833365       3.01111502       3.50456983
H       -4.34728525       3.30043065       3.00556207
H       -6.25991936       6.62912641       6.76232669
H       -2.72022283       0.36059251      -0.13576905
C        0.88146241      -0.88146241       0.88146241
C        0.52447042      -2.21001891       1.10779982
C        1.33016070      -3.02683634       1.91100109
C        2.49566228      -2.51895594       2.48818381
N        3.36610667      -3.27033491       3.29962710
C        3.24858830      -4.59061603       3.69352765
O        2.33401066      -5.34501650       3.38684006
C        4.37043604      -5.01510630       4.55366222
N        5.41019213      -4.18087954       4.80079679
N        6.22757210      -4.89644108       5.59597803
H        7.09486603      -4.46836848       5.90633587
C        5.75857944      -6.13964524       5.88940071
C        4.56334990      -6.24426979       5.22873224
Br       3.42758949      -7.73142028       5.25147300
C        2.82913638      -1.17897487       2.24693115
F        3.94199093      -0.66446478       2.79458777
C        2.03539960      -0.35648157       1.45199358
H       -0.37758517      -2.62668235       0.66506545
H        1.01755069      -4.05577118       2.06069664
H        4.19806211      -2.79952879       3.65568706
H        6.30314172      -6.82200406       6.52622668
H        2.32967478       0.67500107       1.29037258
