121
Properties=species:S:1:pos:R:3 pbc="F F F"
C        0.00000000       0.00000000       0.00000000
C        0.88133191       0.88133191      -0.88133191
C        1.20855765       2.16966996      -0.46224051
C        2.01741375       2.98506935      -1.26367930
C        2.50533570       2.51558902      -2.48485971
N        3.32567535       3.26814268      -3.35598194
C        3.81712735       4.54938049      -3.15415373
O        3.62061903       5.23190741      -2.15189766
C        4.61042527       5.09621564      -4.33943807
H        3.96732777       5.02903677      -5.22752865
C        4.97628351       6.56921033      -4.15134249
N        5.77024201       4.25223595      -4.59754849
N        5.64514447       3.23231577      -5.48181391
C        6.86247915       2.67555001      -5.49660091
C        7.73353560       3.31096314      -4.60522979
C        7.00786860       4.31309249      -4.01943778
C        2.15725181       1.21690644      -2.88307687
F        2.60523484       0.74372610      -4.05695615
C        1.35243192       0.39694397      -2.09616917
H        0.84251309       2.55590365       0.48649844
H        2.24402874       3.98173800      -0.89864980
H        3.62489875       2.78101154      -4.20414244
H        5.56892637       6.73061826      -3.24374567
H        4.07151571       7.18019689      -4.05807802
H        5.55385146       6.94465027      -5.00254592
H        7.05059068       1.83356320      -6.15029492
H        7.26424572       5.04617479      -3.26749202
H        1.10709264      -0.60147373      -2.44211933
C        9.10836074       2.95271435      -4.37046684
C       10.25977679       2.65268099      -4.17385287
Br      12.12151917       2.16755241      -3.85594472
C       -0.88133191      -0.88133191      -0.88133191
C       -1.36304697      -2.09165864      -0.38576251
C       -2.17315552      -2.90630721      -1.18669967
C       -2.50805874      -2.51357995      -2.48414574
N       -3.31766173      -3.27146128      -3.36067697
C       -3.94293576      -4.48107067      -3.09665515
O       -3.89830306      -5.08066583      -2.02545521
C       -4.67938601      -5.06677559      -4.29991738
H       -3.95892465      -5.13889996      -5.12606857
C       -5.19694243      -6.47865965      -4.02123424
N       -5.72821819      -4.15431809      -4.73749016
N       -5.43227057      -3.23660630      -5.69039727
C       -6.58606257      -2.58120084      -5.86736665
C       -7.58634514      -3.05279365      -5.01058974
C       -7.01114607      -4.05400563      -4.27524717
C       -2.00647562      -1.29282155      -2.95793795
F       -2.30548022      -0.89540680      -4.20503007
C       -1.19869312      -0.47466687      -2.17218506
H       -1.11779829      -2.41696891       0.62284890
H       -2.52300678      -3.84106601      -0.76034375
H       -3.49578433      -2.84235652      -4.27191189
H       -5.87789690      -6.50249643      -3.16289696
H       -4.36501161      -7.15361594      -3.79116308
H       -5.73199788      -6.88147853      -4.88757124
H       -6.63731140      -1.79138677      -6.60575063
H       -7.39896400      -4.68838252      -3.49056601
H       -0.83174443       0.46201261      -2.57800643
C       -8.93644905      -2.55729278      -4.93780010
C      -10.06716107      -2.14231080      -4.87683878
Br     -11.89542678      -1.47132005      -4.77826948
C       -0.88133191       0.88133191       0.88133191
C       -1.42538072       0.36087025       2.05421714
C       -2.23425860       1.16229887       2.86960494
C       -2.49985886       2.48742027       2.51850530
N       -3.30375205       3.36623164       3.27981629
C       -3.92357691       3.10438588       4.49269879
O       -3.84870647       2.04526103       5.11045660
C       -4.78614853       4.25728301       5.00264744
H       -5.50451154       4.50885646       4.21052519
C       -5.59210105       3.86343225       6.24130302
N       -3.96403016       5.44199809       5.21399819
N       -3.83285073       6.32910695       4.19731646
C       -3.04382651       7.28191736       4.70888620
C       -2.65072259       6.98157310       6.01743284
C       -3.23708142       5.78237592       6.32094153
C       -1.94239572       2.98352752       1.33131189
F       -2.18916643       4.25147864       0.96527204
C       -1.13799038       2.19642599       0.51112868
H       -1.22995606      -0.66763780       2.34960004
H       -2.63852435       0.71421315       3.77167904
H       -3.38718287       4.31528062       2.90758926
H       -4.94512484       3.53538862       7.06277684
H       -6.26711084       3.03158191       6.01109788
H       -6.19670223       4.70199697       6.60234845
H       -2.79145100       8.14155018       4.10144763
H       -3.20375537       5.16587370       7.20828346
H       -0.72681426       2.61990907      -0.39898509
C       -1.79489611       7.78969606       6.84694976
C       -1.07814143       8.46649904       7.54167018
Br       0.08079026       9.56083222       8.66497434
C        0.88133191      -0.88133191       0.88133191
C        0.92259852      -0.66094479       2.25692480
C        1.72744751      -1.46516802       3.07354688
C        2.49124952      -2.49464776       2.51988714
N        3.33012240      -3.35289183       3.26678575
C        3.51604205      -3.36336873       4.64125079
O        2.94938309      -2.61831906       5.43672194
C        4.55957169      -4.37477467       5.11173262
H        5.48975713      -4.16963887       4.56449718
C        4.86565059      -4.22821793       6.60296780
N        4.14828662      -5.72459587       4.74714395
N        4.56678296      -6.23113447       3.56135672
C        4.03666709      -7.46017162       3.53779136
C        3.26228986      -7.71216223       4.67527644
C        3.32903234      -6.57574902       5.43561751
C        2.43318181      -2.69134153       1.13271179
F        3.16458554      -3.66828039       0.57305116
C        1.63829393      -1.89753237       0.30971876
H        0.33401675       0.13315982       2.71106137
H        1.73051594      -1.25547420       4.13842640
H        3.80891887      -4.07627247       2.72486140
H        3.96832860      -4.35595229       7.21900941
H        5.26345318      -3.22983699       6.81650046
H        5.60625124      -4.96613491       6.92866150
H        4.23646009      -8.10574854       2.69224018
H        2.88082342      -6.31339863       6.38369048
H        1.62276150      -2.08379675      -0.75882001
C        2.54660554      -8.93003062       4.95490577
C        1.94721993      -9.94999539       5.18909534
Br       0.97806409     -11.59919216       5.56776006
