134
Properties=species:S:1:pos:R:3 pbc="F F F"
O        4.06620619       0.77192491      -5.88774875
C        4.79315246       1.42783733      -5.14792365
C        4.61685549       2.92799909      -5.04366955
C        3.15954203       3.25044785      -4.74910889
N        2.75243048       2.79289878      -3.43165722
N        3.35745028       3.30265704      -2.33624003
C        2.74590033       2.67897792      -1.32218876
C        1.77701068       1.77701068      -1.77701068
C        1.79935970       1.85858439      -3.14339656
N        5.81742459       0.93972223      -4.36584980
C        6.20416469      -0.40852231      -4.20115404
C        5.57575615      -1.49078058      -4.81849765
C        6.02206875      -2.79670156      -4.57854748
C        7.10077317      -3.02235571      -3.72375653
Br       7.69102843      -4.78869130      -3.40447149
C        7.74236732      -1.95644931      -3.10404770
C        7.28755675      -0.66430344      -3.34834221
F        7.90863398       0.36387273      -2.74734476
H        4.91166719       3.36143456      -6.00668316
H        5.27752273       3.35417667      -4.28133524
H        2.48516904       2.79686321      -5.48485618
H        2.99459024       4.33377812      -4.76912012
H        3.03834763       2.91215075      -0.30655592
H        1.23977840       1.34811511      -3.91464738
H        6.34512921       1.60251406      -3.80409307
H        4.73012345      -1.35850968      -5.48625699
H        5.51525360      -3.62758218      -5.06419087
H        8.58371371      -2.10939695      -2.43654423
O       -3.77760602      -0.88706092      -6.06121291
C       -4.58024608      -1.45881160      -5.32985576
C       -4.49647879      -2.95785553      -5.13418980
C       -3.07831242      -3.34161175      -4.73917459
N       -2.71781425      -2.83184829      -3.42732394
N       -3.40984351      -3.24407786      -2.34242598
C       -2.81948855      -2.59728054      -1.33029792
C       -1.77701068      -1.77701068      -1.77701068
C       -1.72966228      -1.93572218      -3.13595620
N       -5.61575968      -0.87152322      -4.63571372
C       -5.93267812       0.50299970      -4.56711800
C       -5.21040041       1.51216403      -5.20523684
C       -5.59323248       2.85206596      -5.06274815
C       -6.70206235       3.18486143      -4.28497307
Br      -7.20621234       4.99612623      -4.09672250
C       -7.43667220       2.19285091      -3.64614442
C       -7.04434004       0.86596869      -3.79322417
F       -7.75530897      -0.09062247      -3.17392003
H       -4.76292090      -3.42929814      -6.08756587
H       -5.22105533      -3.30290259      -4.38907672
H       -2.33994252      -2.96845958      -5.45848633
H       -2.97511498      -4.43166467      -4.69070882
H       -3.17967465      -2.75538437      -0.32199528
H       -1.10052000      -1.50166274      -3.90035814
H       -6.21049383      -1.47121328      -4.07002923
H       -4.33871120       1.29589597      -5.81505554
H       -5.01379187       3.62483225      -5.56290267
H       -8.30288509       2.42948293      -3.03745884
O       -1.34584311       6.42086324       2.95917350
C       -1.66378474       5.76119152       3.94393718
C       -3.10427892       5.34009192       4.14415328
C       -3.61607813       4.65964068       2.88337996
N       -2.94905967       3.39312344       2.63480336
N       -3.06759495       2.39304350       3.53570890
C       -2.35083652       1.39961013       2.99662036
C       -1.77701068       1.77701068       1.77701068
C       -2.16854231       3.07104718       1.56175117
N       -0.82441359       5.34433922       4.95424380
C        0.57301454       5.52929014       5.04052081
C        1.34478837       6.17472931       4.07353228
C        2.73047082       6.29379854       4.24058696
C        3.34644291       5.77111642       5.37750048
Br       5.21692862       5.93406724       5.58966999
C        2.59329192       5.12954559       6.35371204
C        1.21815655       5.01522227       6.17452980
F        0.49282554       4.39379402       7.11888299
H       -3.68683591       6.24671557       4.34623344
H       -3.21011935       4.68648803       5.01642726
H       -3.48045874       5.28980745       1.99662223
H       -4.68552875       4.43774383       2.97421589
H       -2.28241817       0.45469678       3.51993934
H       -1.96542019       3.77244204       0.76467866
H       -1.22761006       4.80698258       5.71714370
H        0.90504399       6.59059097       3.17232378
H        3.31570629       6.79481009       3.47275848
H        3.05190920       4.71679836       7.24597184
O        1.12042569      -6.28727376       3.31818041
C        1.55246736      -5.58744544       4.22900064
C        3.02876480      -5.25905625       4.30070307
C        3.49277050      -4.70391438       2.96241389
N        2.89641014      -3.41212981       2.66844653
N        3.14690272      -2.36479579       3.48464884
C        2.46163710      -1.36074230       2.92468761
C        1.77701068      -1.77701068       1.77701068
C        2.06384460      -3.10752548       1.62997057
N        0.81834401      -5.04385608       5.26079652
C       -0.57846937      -5.12105689       5.45420890
C       -1.45987658      -5.77271376       4.59063605
C       -2.83472143      -5.77976024       4.85887586
C       -3.33025348      -5.13847700       5.99395047
Br      -5.18722357      -5.15109982       6.34293237
C       -2.46697185      -4.48870154       6.86823602
C       -1.10381909      -4.48643260       6.58898202
F       -0.27188208      -3.85683704       7.43489651
H        3.56197252      -6.18973711       4.52807527
H        3.24120229      -4.55751363       5.11431872
H        3.25123240      -5.38095791       2.13469810
H        4.57850723      -4.55429948       2.96468177
H        2.49507505      -0.38023791       3.38174134
H        1.75681751      -3.84452333       0.90120005
H        1.31093902      -4.48686114       5.95393618
H       -1.11546892      -6.27907245       3.69426724
H       -3.50637070      -6.28775945       4.17047353
H       -2.83101686      -3.98468072       7.75719714
C       -0.00445707       0.01189536      -1.78238275
H       -0.66409135       0.67374010      -2.43557963
H        0.65740317      -0.63156657      -2.45157240
C       -0.90989263      -0.90692880      -0.91072765
C        0.90977584       0.90977584      -0.90977584
C       -0.00465871       1.77757030       0.00794375
H       -0.66225468       2.44313916      -0.64384735
H        0.64322798       2.43503045       0.67728295
C       -1.78241447       0.00034974      -0.00472694
H       -2.45427497      -0.65498947       0.64260836
H       -2.43311707       0.67328779      -0.65473579
C       -0.91132561       0.90220522       0.91563759
C       -0.01476271      -0.02253852       1.78660255
H       -0.67934791      -0.69751639       2.42135241
H        0.63392994       0.61504881       2.47327442
C        0.01484550      -1.77751727      -0.01636693
H        0.67870853      -2.42144646      -0.68295456
H       -0.62264859      -2.45592969       0.64226336
C        1.78714474       0.01002794       0.00389507
H        2.44202412       0.67113390       0.66197326
H        2.45385902      -0.65136977      -0.64189061
C        0.91606151      -0.90478549       0.90901405
