113
Properties=species:S:1:pos:R:3 pbc="F F F"
C        0.00000000       0.00000000       0.00000000
O        3.15630217      -0.13797912      -4.97784473
C        3.88324844       0.51793331      -4.23801963
C        3.70695147       2.01809506      -4.13376553
C        2.24963801       2.34054383      -3.83920487
N        1.84252645       1.88299475      -2.52175320
N        2.44754626       2.39275301      -1.42633600
C        1.83599631       1.76907390      -0.41228473
C        0.86710665       0.86710665      -0.86710665
C        0.88945568       0.94868037      -2.23349254
N        4.90752056       0.02981821      -3.45594577
C        5.29426067      -1.31842633      -3.29125001
C        4.66585213      -2.40068461      -3.90859363
C        5.11216473      -3.70660558      -3.66864346
C        6.19086914      -3.93225974      -2.81385251
Br       6.78112441      -5.69859533      -2.49456746
C        6.83246329      -2.86635333      -2.19414368
C        6.37765273      -1.57420746      -2.43843818
F        6.99872995      -0.54603129      -1.83744074
H        4.00176317       2.45153054      -5.09677914
H        4.36761871       2.44427265      -3.37143121
H        1.57526501       1.88695918      -4.57495215
H        2.08468622       3.42387409      -3.85921610
H        2.12844361       2.00224673       0.60334811
H        0.32987438       0.43821108      -3.00474335
H        5.43522518       0.69261004      -2.89418905
H        3.82021943      -2.26841370      -4.57635296
H        4.60534957      -4.53748621      -4.15428684
H        7.67380969      -3.01930097      -1.52664021
O       -0.56196519      -1.87173807      -5.56246451
C       -1.72960615      -1.65954091      -5.25005431
C       -2.54412714      -2.74155764      -4.57312728
C       -1.78047650      -3.27749461      -3.37141559
N       -1.64303512      -2.28290938      -2.32132990
N       -2.75114102      -1.78981913      -1.72567513
C       -2.26497976      -0.92589124      -0.82648394
C       -0.86710665      -0.86710665      -0.86710665
C       -0.48208724      -1.74576491      -1.84377643
N       -2.43425970      -0.49479920      -5.46422564
C       -1.95284757       0.70930411      -6.02354088
C       -0.63897389       0.91264334      -6.44743060
C       -0.25115601       2.15126803      -6.97431462
C       -1.17806744       3.18779528      -7.08218975
Br      -0.64206984       4.85550251      -7.79052921
C       -2.49237902       3.00208364      -6.66995826
C       -2.86427038       1.76800856      -6.14562163
F       -4.13471177       1.59154556      -5.74697319
H       -2.70248571      -3.54120081      -5.30638632
H       -3.53213379      -2.37113507      -4.28005371
H       -0.77471995      -3.61648824      -3.64596816
H       -2.30997810      -4.12894999      -2.92884832
H       -2.95290825      -0.38375386      -0.19068011
H        0.48662817      -2.02717412      -2.23228286
H       -3.40297923      -0.46105382      -5.15799122
H        0.11389929       0.13382636      -6.37588434
H        0.77905396       2.29226649      -7.29347066
H       -3.22954876       3.79431409      -6.74591426
O       -3.47198819      -0.23505030       4.75922988
C       -4.10903547       0.50961867       4.02054723
C       -3.83623516       1.99891553       4.02366137
C       -2.34622318       2.24430259       3.83886093
N       -1.88369963       1.84186426       2.52171051
N       -2.38527784       2.45456874       1.42678869
C       -1.74861424       1.85521695       0.41352374
C       -0.86710665       0.86710665       0.86710665
C       -0.97218604       0.86737348       2.23206907
N       -5.10855094       0.13634916       3.14838444
C       -5.56454218      -1.17188438       2.87442654
C       -5.04350326      -2.32752557       3.45778346
C       -5.55145003      -3.58523528       3.10798786
C       -6.58468435      -3.68918273       2.17696029
Br      -7.25869350      -5.39148815       1.70989119
C       -7.11969214      -2.54884048       1.58940198
C       -6.60439036      -1.30566003       1.94315312
F       -7.12243850      -0.20534746       1.37304835
H       -4.16559106       2.39150388       4.99297790
H       -4.41967411       2.51184494       3.25180352
H       -1.74907785       1.70479644       4.58330206
H       -2.11784784       3.31162125       3.93830732
H       -1.96064302       2.16752784      -0.60082864
H       -0.49509723       0.27643318       3.00129840
H       -5.55815043       0.86433548       2.59953836
H       -4.23605787      -2.29034995       4.18245077
H       -5.12791105      -4.47472402       3.56896317
H       -7.92413160      -2.60690308       0.86392041
O        0.88671562      -1.46884494       5.64060721
C        2.03641212      -1.38263247       5.22015678
C        2.70221609      -2.58034769       4.57624828
C        1.79867804      -3.14197725       3.48873141
N        1.65066748      -2.22512072       2.37148621
N        2.73912481      -1.87714459       1.65036588
C        2.24738091      -1.04832502       0.72164901
C        0.86710665      -0.86710665       0.86710665
C        0.49905465      -1.62989489       1.94267905
N        2.84638336      -0.26922878       5.27767241
C        2.51098076       1.01196927       5.76807285
C        1.25832600       1.35977055       6.27520570
C        1.01582673       2.66469034       6.72306622
C        2.02734758       3.62335356       6.66846790
Br       1.68701223       5.38142148       7.27150578
C        3.28282391       3.29394130       6.17137103
C        3.51008128       1.99510396       5.72690613
F        4.72387645       1.67970228       5.24596523
H        2.85924725      -3.33033929       5.36048630
H        3.68761966      -2.32008708       4.17561583
H        0.79653639      -3.37096255       3.86967741
H        2.21962103      -4.06783832       3.08031706
H        2.91894205      -0.61883876      -0.01043859
H       -0.45200780      -1.79587807       2.42895854
H        3.78497686      -0.34274592       4.89430149
H        0.44307647       0.64503591       6.33011813
H        0.03103458       2.91804551       7.10916114
H        4.08391089       4.02368972       6.12092776
