121
Properties=species:S:1:pos:R:3 pbc="F F F"
C        0.00000000       0.00000000       0.00000000
C        0.87775988       0.87775988      -0.87775988
C        0.61473225       2.23309680      -1.01902821
C        1.42390799       3.00193501      -1.85853155
C        2.47658571       2.38601353      -2.52343163
N        2.77109492       1.07622039      -2.36318590
C        1.95961754       0.34778753      -1.56011569
N        3.33609067       3.03281775      -3.41122525
C        3.16036181       4.25046624      -4.02100189
O        2.19969392       4.99356075      -3.83345855
C        4.32066866       4.71162365      -4.91346084
H        4.92507817       5.36905686      -4.27285237
C        5.25652339       3.61425950      -5.42215212
C        3.77900865       5.58718058      -6.05673067
N        2.97518896       4.87839242      -7.03784559
N        3.58639941       4.12777144      -7.98312098
C        2.57483171       3.69231690      -8.74279153
C        1.34163407       4.17440117      -8.29103522
Br      -0.31375321       3.82993789      -9.07572820
C        1.61796899       4.93746249      -7.18948958
H       -0.21336457       2.70131132      -0.49355504
H        1.21861217       4.05927908      -1.96294139
H        2.21419694      -0.70435500      -1.48859347
H        4.05921495       2.40256157      -3.72832512
H        4.70621533       2.78132836      -5.87388100
H        5.85283630       3.20400155      -4.59867536
H        5.96208586       4.00671957      -6.16066620
H        4.60843376       6.05016672      -6.60689128
H        3.16485249       6.41018041      -5.66975803
H        2.79051648       3.05232251      -9.58875009
H        0.99014160       5.50674058      -6.51785235
C       -0.87775988      -0.87775988      -0.87775988
C       -2.26111324      -0.77842271      -0.82732131
C       -3.03599984      -1.62293713      -1.62543757
C       -2.39604597      -2.53520187      -2.45478302
N       -1.04946769      -2.61478803      -2.54624548
C       -0.32041214      -1.79967253      -1.74743609
N       -3.05276423      -3.45263116      -3.27473828
C       -4.36757318      -3.84457754      -3.21967922
O       -5.19818660      -3.39525267      -2.43327395
C       -4.80106682      -4.84325446      -4.30143186
H       -5.24931504      -4.22546773      -5.09220464
C       -3.68199136      -5.65225746      -4.95868619
C       -5.92338687      -5.74334684      -3.75618619
N       -5.51032518      -6.66735558      -2.71374621
N       -4.84871799      -7.79864315      -3.04993069
C       -4.69496329      -8.43295115      -1.88202569
C       -5.26567410      -7.71756795      -0.82382841
Br      -5.29666155      -8.25581067       0.96055934
C       -5.78678179      -6.58025072      -1.37788855
H       -2.74822604      -0.06074211      -0.17253364
H       -4.11424641      -1.53976746      -1.58681877
H        0.75429494      -1.92241496      -1.83031539
H       -2.38773671      -3.97259838      -3.82976655
H       -3.02327545      -6.11982929      -4.21831996
H       -3.05922215      -5.00693987      -5.58935119
H       -4.08759414      -6.43460826      -5.60726922
H       -6.34868393      -6.35256755      -4.56424028
H       -6.74925115      -5.14592665      -3.34961313
H       -4.18109177      -9.38552857      -1.86496875
H       -6.31953214      -5.73900428      -0.95619811
C       -0.87775988       0.87775988       0.87775988
C       -1.84278072       1.70440806       0.31966848
C       -2.60928600       2.52009681       1.15499173
C       -2.38711890       2.47349976       2.52541221
N       -1.48036193       1.64282151       3.08731777
C       -0.73558380       0.87697647       2.25496048
N       -3.06091530       3.25764854       3.46156983
C       -3.81193368       4.38464733       3.23524893
O       -4.04038251       4.86075584       2.12557486
C       -4.46952979       4.99654096       4.47968240
H       -5.48978918       4.58802035       4.48917788
C       -3.83842459       4.63070425       5.82380618
C       -4.60599054       6.51827331       4.29865605
N       -3.34853477       7.24621172       4.29668048
N       -2.72507641       7.50241240       5.46980303
C       -1.66489259       8.23495006       5.11009749
C       -1.62792929       8.45081797       3.72832320
Br      -0.33665277       9.43872296       2.81653715
C       -2.72122191       7.80522043       3.21847872
H       -2.00468561       1.73145969      -0.75464350
H       -3.36381614       3.16019021       0.71682628
H        0.00150605       0.25199879       2.74794267
H       -2.77734370       3.01290650       4.39985144
H       -2.75345370       4.78403519       5.82393580
H       -4.01969832       3.57559209       6.06022280
H       -4.27321222       5.21809756       6.63816184
H       -5.21339245       6.94452168       5.10757763
H       -5.12173565       6.76190408       3.36115119
H       -0.97931002       8.57790691       5.87437215
H       -3.10413510       7.69768246       2.21291697
C        0.87775988      -0.87775988       0.87775988
C        1.72309004      -0.31818363       1.82558359
C        2.53792817      -1.15410649       2.59233989
C        2.47179229      -2.52646264       2.38777594
N        1.62310863      -3.08908865       1.49830393
C        0.85833980      -2.25648336       0.75269760
N        3.25270987      -3.46394919       3.06347461
C        4.39162574      -3.24244043       3.79776376
O        4.88409110      -2.13604168       4.00658044
C        4.99633647      -4.48621782       4.46319886
H        4.60041675      -4.47814456       5.48842609
C        4.60625922      -5.83333173       3.85334407
C        6.52174807      -4.32242242       4.57874940
N        7.23400276      -4.34488255       3.31254166
N        7.46805829      -5.52864319       2.70059035
C        8.19174131      -5.19106782       1.62713100
C        8.42404722      -3.81263401       1.57038922
Br       9.40695632      -2.92906091       0.25589565
C        7.79835538      -3.28146428       2.66510141
H        1.76530811       0.75761315       1.97380684
H        3.19265170      -0.71470286       3.33347808
H        0.21827442      -2.75066921       0.02949178
H        2.99299197      -4.40252671       2.79458295
H        4.74610745      -5.84865613       2.76666110
H        3.55065939      -6.05440403       4.05044980
H        5.18897893      -6.64952259       4.29097009
H        6.94555499      -5.12906638       5.19087040
H        6.78322521      -3.38176319       5.07980253
H        8.51677840      -5.96787996       0.94693073
H        7.70790334      -2.27003009       3.03680110
