150
Properties=species:S:1:pos:R:3 pbc="F F F"
C        1.78766391       1.78766391      -1.78766391
C        1.52463627       3.14300082      -1.92893223
C        2.33381201       3.91183904      -2.76843557
C        3.38648974       3.29591755      -3.43333566
N        3.68099894       1.98612442      -3.27308992
C        2.86952157       1.25769155      -2.47001971
N        4.24599470       3.94272177      -4.32112928
C        4.07026583       5.16037027      -4.93090591
O        3.10959795       5.90346477      -4.74336257
C        5.23057268       5.62152768      -5.82336486
H        5.83498220       6.27896089      -5.18275639
C        6.16642742       4.52416352      -6.33205614
C        4.68891267       6.49708461      -6.96663470
N        3.88509298       5.78829645      -7.94774962
N        4.49630344       5.03767547      -8.89302501
C        3.48473574       4.60222092      -9.65269556
C        2.25153810       5.08430520      -9.20093924
C        2.52787302       5.84736651      -8.09939360
H        0.69653946       3.61121534      -1.40345907
H        2.12851620       4.96918310      -2.87284542
H        3.12410097       0.20554903      -2.39849749
H        4.96911898       3.31246560      -4.63822914
H        5.61611936       3.69123238      -6.78378502
H        6.76274032       4.11390557      -5.50857939
H        6.87198988       4.91662359      -7.07057022
H        5.51833778       6.96007075      -7.51679531
H        4.07475652       7.32008443      -6.57966205
H        3.70042051       3.96222654     -10.49865412
H        1.90004562       6.41664460      -7.42775638
C        0.97273661       4.81820423      -9.80712159
C       -0.09825963       4.59534467     -10.31479930
Br      -1.82996998       4.23499962     -11.13567123
C       -1.78766391      -1.78766391      -1.78766391
C       -2.99373660      -1.31608718      -2.28674554
C       -3.78856484      -2.16157568      -3.06394610
C       -3.34256197      -3.45166042      -3.32152055
N       -2.15098859      -3.91134399      -2.87788070
C       -1.40809568      -3.07966331      -2.10947384
N       -4.05386257      -4.40127848      -4.05470469
C       -5.38408594      -4.38283705      -4.39461902
O       -6.16156690      -3.47021327      -4.12464512
C       -5.85836493      -5.56147712      -5.25562318
H       -5.81739598      -5.19009260      -6.28921090
C       -4.99304550      -6.82154027      -5.20806131
C       -7.33674705      -5.86207284      -4.95381208
N       -7.58990321      -6.40226321      -3.62897263
N       -7.33652272      -7.70820850      -3.38227269
C       -7.74485212      -7.87555946      -2.11924063
C       -8.26325818      -6.69310992      -1.58041443
C       -8.15497015      -5.75201233      -2.56765065
H       -3.33069587      -0.30460307      -2.07591493
H       -4.72629883      -1.78916298      -3.45508290
H       -0.47666178      -3.50289448      -1.74859121
H       -3.51099219      -5.24649650      -4.16232502
H       -4.77738380      -7.13366918      -4.18008378
H       -4.03168174      -6.64785877      -5.70568477
H       -5.47565659      -7.65306001      -5.73046709
H       -7.73006476      -6.59415858      -5.67098050
H       -7.95452830      -4.96118925      -5.05878545
H       -7.64898259      -8.85148499      -1.66083358
H       -8.42486048      -4.70588614      -2.61369998
C       -8.80325261      -6.54056937      -0.25424045
C       -9.25549794      -6.41281666       0.85643025
Br      -9.98674038      -6.20625132       2.65229083
C       -1.78766391       1.78766391       1.78766391
C       -1.57215991       3.15630009       1.86810933
C       -2.37864715       3.92636903       2.70907044
C       -3.38124410       3.29785935       3.43663950
N       -3.63065160       1.97279573       3.33676595
C       -2.82207214       1.24456823       2.53059247
N       -4.23147218       3.94606388       4.33230968
C       -4.08037829       5.19207506       4.88908866
O       -3.15680701       5.96260619       4.63701209
C       -5.22362319       5.64388402       5.80795801
H       -5.87642599       6.25310323       5.16717026
C       -6.09676549       4.53293436       6.39294723
C       -4.67404072       6.58254474       6.89604651
N       -3.80745493       5.94263261       7.87105151
N       -4.35357646       5.20689073       8.86653672
C       -3.29835309       4.83908928       9.60220984
C       -2.10238787       5.34891514       9.08547952
C       -2.44883035       6.05800037       7.96780242
H       -0.78291935       3.63434696       1.29394756
H       -2.21064210       4.99386780       2.76603481
H       -3.03826668       0.18170060       2.50818021
H       -4.91738255       3.30205970       4.70037146
H       -5.49823134       3.73915347       6.85375195
H       -6.70700886       4.06923218       5.60898424
H       -6.78899556       4.92711974       7.14306839
H       -5.49969281       7.03526150       7.46024953
H       -4.10699456       7.41225710       6.45525133
H       -3.45749314       4.22469716      10.47911086
H       -1.86891876       6.62385924       7.25166861
C       -0.79257706       5.15423591       9.65124946
C        0.30438950       4.99119206      10.12508179
Br       2.07809164       4.72756393      10.89122858
C        1.78766391      -1.78766391       1.78766391
C        3.14778362      -1.53980367       1.90898203
C        3.92834811      -2.38616619       2.69957232
C        3.31601721      -3.45023053       3.34949520
N        1.98565980      -3.67952553       3.27502795
C        1.25385497      -2.85735486       2.48602300
N        3.98606433      -4.38344422       4.14033720
C        5.33606838      -4.62744614       4.19802749
O        6.18607357      -4.00581737       3.56453434
C        5.76783950      -5.69456210       5.21306363
H        6.05654231      -5.12964023       6.11051694
C        4.68814609      -6.68645495       5.64804604
C        7.03776194      -6.40352849       4.71134154
N        6.84558638      -7.23800965       3.53754301
N        6.28861872      -8.46334062       3.67504457
C        6.33194902      -8.97011303       2.43759015
C        6.92257260      -8.08111920       1.53309074
C        7.24746962      -6.96793142       2.25923209
H        3.61360873      -0.70412948       1.39347566
H        4.98774557      -2.18738219       2.79541695
H        0.19795048      -3.10000418       2.43019282
H        3.33189447      -5.03073252       4.55718673
H        4.16884743      -7.13074973       4.79153961
H        3.93239228      -6.18711868       6.26571432
H        5.11227273      -7.49243962       6.25447133
H        7.44463053      -7.05499156       5.49558175
H        7.82635634      -5.68026457       4.46788210
H        5.93687349      -9.96249347       2.26193420
H        7.71976650      -6.03255364       1.99212646
C        7.13791831      -8.32909910       0.13104502
C        7.31827034      -8.53678226      -1.04316826
Br       7.60988433      -8.87258838      -2.94177184
C       -0.00445707       0.01189536      -1.78238275
H       -0.66409135       0.67374010      -2.43557963
H        0.65740317      -0.63156657      -2.45157240
C       -0.90989263      -0.90692880      -0.91072765
C        0.90977584       0.90977584      -0.90977584
C       -0.00465871       1.77757030       0.00794375
H       -0.66225468       2.44313916      -0.64384735
H        0.64322798       2.43503045       0.67728295
C       -1.78241447       0.00034974      -0.00472694
H       -2.45427497      -0.65498947       0.64260836
H       -2.43311707       0.67328779      -0.65473579
C       -0.91132561       0.90220522       0.91563759
C       -0.01476271      -0.02253852       1.78660255
H       -0.67934791      -0.69751639       2.42135241
H        0.63392994       0.61504881       2.47327442
C        0.01484550      -1.77751727      -0.01636693
H        0.67870853      -2.42144646      -0.68295456
H       -0.62264859      -2.45592969       0.64226336
C        1.78714474       0.01002794       0.00389507
H        2.44202412       0.67113390       0.66197326
H        2.45385902      -0.65136977      -0.64189061
C        0.91606151      -0.90478549       0.90901405
