142
Properties=species:S:1:pos:R:3 pbc="F F F"
C        1.78766391       1.78766391      -1.78766391
C        1.52463627       3.14300082      -1.92893223
C        2.33381201       3.91183904      -2.76843557
C        3.38648974       3.29591755      -3.43333566
N        3.68099894       1.98612442      -3.27308992
C        2.86952157       1.25769155      -2.47001971
N        4.24599470       3.94272177      -4.32112928
C        4.07026583       5.16037027      -4.93090591
O        3.10959795       5.90346477      -4.74336257
C        5.23057268       5.62152768      -5.82336486
H        5.83498220       6.27896089      -5.18275639
C        6.16642742       4.52416352      -6.33205614
C        4.68891267       6.49708461      -6.96663470
N        3.88509298       5.78829645      -7.94774962
N        4.49630344       5.03767547      -8.89302501
C        3.48473574       4.60222092      -9.65269556
C        2.25153810       5.08430520      -9.20093924
Br       0.59615081       4.73984192      -9.98563222
C        2.52787302       5.84736651      -8.09939360
H        0.69653946       3.61121534      -1.40345907
H        2.12851620       4.96918310      -2.87284542
H        3.12410097       0.20554903      -2.39849749
H        4.96911898       3.31246560      -4.63822914
H        5.61611936       3.69123238      -6.78378502
H        6.76274032       4.11390557      -5.50857939
H        6.87198988       4.91662359      -7.07057022
H        5.51833778       6.96007075      -7.51679531
H        4.07475652       7.32008443      -6.57966205
H        3.70042051       3.96222654     -10.49865412
H        1.90004562       6.41664460      -7.42775638
C       -1.78766391      -1.78766391      -1.78766391
C       -2.89661290      -1.26323107      -2.43672535
C       -3.69772449      -2.10664724      -3.20971488
C       -3.35463888      -3.44879011      -3.31231395
N       -2.25418573      -3.96539852      -2.72062904
C       -1.50512946      -3.13204076      -1.96006261
N       -4.08648838      -4.39852385      -4.02483352
C       -5.37490589      -4.29787734      -4.48875878
O       -6.08335757      -3.30045517      -4.37261254
C       -5.88223478      -5.50716981      -5.28606063
H       -5.71779744      -5.23961599      -6.33928605
C       -5.14665732      -6.82686205      -5.04912772
C       -7.40279326      -5.64982403      -5.10001468
N       -7.81861107      -6.03915475      -3.76337323
N       -7.71141744      -7.33300928      -3.38257719
C       -8.24073868      -7.34502019      -2.15389335
C       -8.68994408      -6.07693972      -1.76989873
Br      -9.51224183      -5.65942724      -0.14995588
C       -8.40910078      -5.24574431      -2.81978805
H       -3.15374765      -0.21118924      -2.34627698
H       -4.55913586      -1.69347669      -3.71793216
H       -0.65214907      -3.59792116      -1.47807725
H       -3.61834555      -5.29364223      -4.00782594
H       -5.05049807      -7.05823193      -3.98240676
H       -4.13401253      -6.78407279      -5.46713996
H       -5.65868631      -7.65928112      -5.54121626
H       -7.80015665      -6.40962669      -5.78542050
H       -7.92172194      -4.71306367      -5.33971738
H       -8.27690887      -8.27808159      -1.60631070
H       -8.57437150      -4.18928541      -2.98078969
C       -1.78766391       1.78766391       1.78766391
C       -2.01362182       3.11832704       1.46462046
C       -2.80009718       3.90261462       2.31137481
C       -3.34104820       3.32280492       3.45188983
N       -3.16486315       2.01765560       3.75769452
C       -2.38168782       1.28342649       2.93211852
N       -4.11510090       4.00274684       4.39199801
C       -4.24657146       5.35974680       4.55522375
O       -3.71028074       6.20444665       3.84169790
C       -5.21987740       5.79734995       5.65823788
H       -6.16768306       5.99200871       5.13700771
C       -5.52038435       4.76063899       6.74162375
C       -4.76015721       7.13992792       6.25254684
N       -3.52682369       7.07630536       7.01800999
N       -3.55112686       6.59400383       8.28187321
C       -2.29023580       6.74722718       8.70218923
C       -1.48348081       7.33273809       7.72056364
Br       0.32546664       7.74391561       7.90317598
C       -2.29701205       7.53785382       6.63976726
H       -1.58272326       3.55898785       0.56950276
H       -2.97779470       4.93860679       2.05414323
H       -2.24135526       0.25133142       3.23546080
H       -4.44697706       3.36818569       5.10465097
H       -4.60560256       4.32583212       7.15970208
H       -6.11654013       3.93678004       6.33190511
H       -6.10241933       5.19868825       7.55807611
H       -5.52770493       7.53957970       6.92791921
H       -4.61453780       7.89261100       5.46735420
H       -2.02777721       6.43016315       9.70336079
H       -2.12009498       7.96299831       5.66135331
C        1.78766391      -1.78766391       1.78766391
C        3.03880872      -1.35428592       2.20347468
C        3.83030105      -2.20050033       2.98328524
C        3.33623530      -3.45240781       3.32709984
N        2.10293686      -3.87198310       2.96529333
C        1.36303242      -3.04175011       2.19245030
N        4.03715339      -4.40038702       4.07230534
C        5.38223073      -4.43299975       4.34631152
O        6.18813394      -3.57502185       3.99326950
C        5.84214095      -5.59126749       5.24205678
H        5.87154926      -5.16887876       6.25627146
C        4.91577268      -6.80669437       5.30018004
C        7.28711608      -5.98058585       4.88493004
N        7.44647876      -6.59616170       3.57849859
N        7.11824852      -7.89796592       3.41078947
C        7.45351376      -8.14649748       2.13964097
C        8.00036506      -7.01919159       1.51722588
Br       8.62020671      -6.94040835      -0.23899011
C        7.98774130      -6.02730918       2.45958265
H        3.41303265      -0.37251786       1.92566336
H        4.80351353      -1.85765237       3.30937881
H        0.39518713      -3.43415248       1.89880787
H        3.46031033      -5.21083982       4.24866356
H        4.63350371      -7.15669925       4.30093380
H        3.99035141      -6.56073368       5.83414019
H        5.38357624      -7.63544075       5.84016669
H        7.68050765      -6.69622633       5.61846985
H        7.95214225      -5.10814842       4.91421232
H        7.28759508      -9.13727905       1.73642703
H        8.30974641      -4.99519932       2.43950088
C       -0.00445707       0.01189536      -1.78238275
H       -0.66409135       0.67374010      -2.43557963
H        0.65740317      -0.63156657      -2.45157240
C       -0.90989263      -0.90692880      -0.91072765
C        0.90977584       0.90977584      -0.90977584
C       -0.00465871       1.77757030       0.00794375
H       -0.66225468       2.44313916      -0.64384735
H        0.64322798       2.43503045       0.67728295
C       -1.78241447       0.00034974      -0.00472694
H       -2.45427497      -0.65498947       0.64260836
H       -2.43311707       0.67328779      -0.65473579
C       -0.91132561       0.90220522       0.91563759
C       -0.01476271      -0.02253852       1.78660255
H       -0.67934791      -0.69751639       2.42135241
H        0.63392994       0.61504881       2.47327442
C        0.01484550      -1.77751727      -0.01636693
H        0.67870853      -2.42144646      -0.68295456
H       -0.62264859      -2.45592969       0.64226336
C        1.78714474       0.01002794       0.00389507
H        2.44202412       0.67113390       0.66197326
H        2.45385902      -0.65136977      -0.64189061
C        0.91606151      -0.90478549       0.90901405
