134
Properties=species:S:1:pos:R:3 pbc="F F F"
C        1.79166640       1.79166640      -1.79166640
C        2.60119339       2.76438878      -1.20676505
C        3.40132298       3.57549556      -2.01533666
C        3.39965954       3.40509478      -3.40583278
C        2.57585722       2.43154814      -3.98644177
C        1.77257798       1.62344061      -3.17631122
C        4.25936984       4.29567688      -4.22928069
O        4.54151174       5.42285502      -3.83772675
N        4.75031720       3.76231299      -5.40048521
C        5.66194279       4.50724651      -6.25539393
C        7.02890699       4.79223301      -5.63353986
N        7.72590844       3.58385670      -5.23813728
N        8.16003567       2.71634979      -6.17969099
C        8.74678304       1.74786229      -5.46620610
C        8.67423324       1.99877678      -4.09080093
Br       9.35615946       0.90436067      -2.74406350
C        8.01117204       3.18869321      -3.96099849
H        2.61344383       2.90356139      -0.12871333
H        4.02698289       4.34024989      -1.55884159
H        2.52464933       2.31053429      -5.06497972
H        1.12946853       0.87518233      -3.63332359
H        4.67620422       2.76524096      -5.56108431
H        5.17829428       5.45756801      -6.50835540
H        5.76775962       3.93019781      -7.18068569
H        6.94240462       5.43085716      -4.74829455
H        7.67239308       5.31223433      -6.35214039
H        9.19472286       0.90992866      -5.98409936
H        7.72248109       3.77621684      -3.10050449
C       -1.79166640      -1.79166640      -1.79166640
C       -3.14779399      -1.92668845      -1.49786479
C       -3.95145686      -2.73991372      -2.30078462
C       -3.40076107      -3.40728360      -3.40254242
C       -2.03480526      -3.27382643      -3.68521543
C       -1.23099200      -2.46299252      -2.87834529
C       -4.28991335      -4.26950931      -4.22490474
O       -5.27429363      -4.80286810      -3.72493177
N       -3.97396858      -4.37796247      -5.56118435
C       -4.80870545      -5.13160166      -6.48427611
C       -6.20341395      -4.54628937      -6.70497654
N       -6.16589707      -3.18345840      -7.19854695
N       -5.69072181      -2.92737686      -8.43797778
C       -5.81074191      -1.59916911      -8.55094041
C       -6.34667786      -1.02519580      -7.39193729
Br      -6.67221847       0.79093437      -7.12329953
C       -6.56992587      -2.06274434      -6.52819352
H       -3.58704194      -1.41103186      -0.64764476
H       -5.00842683      -2.85149378      -2.06615376
H       -1.57644093      -3.81610180      -4.50762062
H       -0.17014442      -2.36980525      -3.09802478
H       -3.29575271      -3.74290234      -5.96387443
H       -4.90564914      -6.14925660      -6.08931196
H       -4.25763631      -5.19171400      -7.42929281
H       -6.79122591      -4.54917825      -5.78115217
H       -6.75186673      -5.13972228      -7.44517879
H       -5.50059788      -1.11859600      -9.46955699
H       -6.96818164      -2.10702254      -5.52399822
C       -1.79166640       1.79166640       1.79166640
C       -1.40008151       2.07235286       3.09991284
C       -2.21166764       2.87266826       3.90781930
C       -3.40713064       3.40044869       3.40300777
C       -3.79815237       3.10558811       2.09010664
C       -2.98700250       2.30112958       1.28419773
C       -4.24491898       4.23969477       4.29971365
O       -4.21474113       4.07321577       5.51413661
N       -4.99140424       5.22674453       3.69496664
C       -5.79355309       6.16054825       4.47048189
C       -4.98758430       7.10463017       5.36246539
N       -4.03249826       7.89981343       4.61559073
N       -4.46922381       8.83949465       3.74735799
C       -3.33882451       9.36348085       3.25854606
C       -2.20384363       8.75372242       3.80624489
Br      -0.43402770       9.17384633       3.39670961
C       -2.67002703       7.81012371       4.68071299
H       -0.47294588       1.67127484       3.50149785
H       -1.90954994       3.08478117       4.93174326
H       -4.74189715       3.46710802       1.69115818
H       -3.29975471       2.06929505       0.26892470
H       -4.80626297       5.46735676       2.72890976
H       -6.47608305       5.57309686       5.09503778
H       -6.39994572       6.72509734       3.75360006
H       -4.43399351       6.55599467       6.13156815
H       -5.65565673       7.80551242       5.87559865
H       -3.40014389      10.15999423       2.52861276
H       -2.17185875       7.10059069       5.32675298
C        1.79166640      -1.79166640       1.79166640
C        1.49820825      -1.92622451       3.14791446
C        2.31039638      -2.72693053       3.95482830
C        3.40731176      -3.40084136       3.40243398
C        3.70096563      -3.25255165       2.04032984
C        2.88973509      -2.44760761       1.23498711
C        4.25031369      -4.23518786       4.29882585
O        4.34413424      -3.96647291       5.49148635
N        4.85449487      -5.33253180       3.72608874
C        5.64330851      -6.26754877       4.51372595
C        4.84587020      -7.05749963       5.55131003
N        3.76441179      -7.82215780       4.96133284
N        4.04125175      -8.86630747       4.14851724
C        2.83167471      -9.32453609       3.80464064
C        1.80546864      -8.57118555       4.38715675
Br      -0.02288915      -8.86186599       4.16560679
C        2.42559236      -7.60438224       5.13088914
H        0.64772983      -1.41091695       3.58707178
H        2.08567464      -2.82512572       5.01527401
H        4.57144843      -3.72988561       1.59882931
H        3.12743046      -2.33008517       0.18045881
H        4.56332176      -5.63471572       2.80449201
H        6.42596297      -5.69452119       5.02373353
H        6.13336056      -6.94221008       3.80307248
H        4.41162812      -6.39907934       6.31084887
H        5.49719175      -7.77098922       6.06858684
H        2.76035123     -10.18113643       3.14726322
H        2.04856092      -6.80151131       5.74913018
C       -0.00445707       0.01189536      -1.78238275
H       -0.66409135       0.67374010      -2.43557963
H        0.65740317      -0.63156657      -2.45157240
C       -0.90989263      -0.90692880      -0.91072765
C        0.90977584       0.90977584      -0.90977584
C       -0.00465871       1.77757030       0.00794375
H       -0.66225468       2.44313916      -0.64384735
H        0.64322798       2.43503045       0.67728295
C       -1.78241447       0.00034974      -0.00472694
H       -2.45427497      -0.65498947       0.64260836
H       -2.43311707       0.67328779      -0.65473579
C       -0.91132561       0.90220522       0.91563759
C       -0.01476271      -0.02253852       1.78660255
H       -0.67934791      -0.69751639       2.42135241
H        0.63392994       0.61504881       2.47327442
C        0.01484550      -1.77751727      -0.01636693
H        0.67870853      -2.42144646      -0.68295456
H       -0.62264859      -2.45592969       0.64226336
C        1.78714474       0.01002794       0.00389507
H        2.44202412       0.67113390       0.66197326
H        2.45385902      -0.65136977      -0.64189061
C        0.91606151      -0.90478549       0.90901405
