121
Properties=species:S:1:pos:R:3 pbc="F F F"
C        0.00000000       0.00000000       0.00000000
C        0.88176238       0.88176238      -0.88176238
C        1.69128937       1.85448475      -0.29686102
C        2.49141896       2.66559154      -1.10543264
C        2.48975552       2.49519075      -2.49592876
C        1.66595319       1.52164411      -3.07653774
C        0.86267396       0.71353659      -2.26640720
C        3.34946581       3.38577286      -3.31937666
O        3.63160771       4.51295100      -2.92782273
N        3.84041318       2.85240897      -4.49058119
C        4.75203876       3.59734249      -5.34548991
C        6.11900297       3.88232898      -4.72363583
N        6.81600442       2.67395268      -4.32823326
N        7.25013164       1.80644577      -5.26978697
C        7.83687901       0.83795826      -4.55630208
C        7.76432922       1.08887275      -3.18089691
C        7.10126802       2.27878918      -3.05109446
H        1.70353980       1.99365737       0.78119069
H        3.11707887       3.43034587      -0.64893756
H        1.61474531       1.40063026      -4.15507570
H        0.21956451      -0.03472170      -2.72341957
H        3.76630019       1.85533694      -4.65118028
H        4.26839025       4.54766398      -5.59845138
H        4.85785560       3.02029378      -6.27078167
H        6.03250059       4.52095314      -3.83839053
H        6.76248906       4.40233031      -5.44223636
H        8.28481883       0.00002464      -5.07419533
H        6.81257706       2.86631282      -2.19060046
C        8.29098946       0.24364136      -2.14079457
C        8.73206741      -0.46423994      -1.26970886
Br       9.44525315      -1.60882412       0.13876306
C       -0.88176238      -0.88176238      -0.88176238
C       -1.83432011      -0.29482509      -1.71348995
C       -2.64554651      -1.10323875      -2.51365788
C       -2.49527876      -2.49585014      -2.48974613
C       -1.54203812      -3.07830158      -1.64379535
C       -0.73383268      -2.26824116      -0.84054391
C       -3.38533100      -3.31886615      -3.35041818
O       -4.50260947      -2.91542467      -3.65434730
N       -2.86199836      -4.50450819      -3.81689679
C       -3.60614732      -5.36180081      -4.72692302
C       -3.86264395      -4.75575340      -6.10657043
N       -2.63888835      -4.38769136      -6.79161064
N       -1.77897455      -5.34766478      -7.19972505
C       -0.79203542      -4.65658013      -7.78252380
C       -1.02407435      -3.27683936      -7.73318516
C       -2.22130856      -3.12055701      -7.08928609
H       -1.95772614       0.78480884      -1.74308918
H       -3.39464938      -0.64498655      -3.15672636
H       -1.43734856      -4.15760081      -1.57550191
H       -0.00147826      -2.72652386      -0.18026025
H       -1.86850449      -4.67819398      -3.72611894
H       -4.56680845      -5.59420362      -4.25349355
H       -3.04106956      -6.29664225      -4.81121924
H       -4.48958778      -3.86035273      -6.04190374
H       -4.38375506      -5.47609585      -6.74720481
H        0.04462405      -5.19275869      -8.21090417
H       -2.80039712      -2.24771083      -6.82138240
C       -0.15650581      -2.25658282      -8.26233675
C        0.57008285      -1.40211797      -8.70550121
Br       1.74491525      -0.02052057      -9.42206066
C       -0.88176238       0.88176238       0.88176238
C       -1.41230255       2.06364822       0.36668438
C       -2.21228611       2.87314460       1.17701242
C       -2.49004623       2.49408769       2.49674111
C       -1.94498594       1.30945971       3.00968940
C       -1.14119941       0.50254179       2.19887655
C       -3.33841763       3.38934335       3.32685435
O       -3.36826450       4.59554101       3.10857593
N       -4.11034954       2.78110934       4.29194445
C       -5.03721040       3.53953505       5.11812570
C       -6.20790150       4.16065299       4.35641329
N       -6.99816893       3.17460914       3.64541228
N       -7.72433582       2.26671369       4.33531487
C       -8.31279902       1.54236267       3.37597766
C       -7.95336034       1.98378744       2.09695110
C       -7.10323596       3.03863176       2.28928394
H       -1.20651777       2.36638511      -0.65689639
H       -2.61952780       3.79986366       0.77697084
H       -2.11023726       1.01718973       4.04302429
H       -0.71457429      -0.41141293       2.60510102
H       -4.22053293       1.77458354       4.27770094
H       -4.46779494       4.33564747       5.61106320
H       -5.39700075       2.85644562       5.89548467
H       -5.86472004       4.90092295       3.62620127
H       -6.88400597       4.67268561       5.05036415
H       -8.97068719       0.73068038       3.65767124
H       -6.57602538       3.68865147       1.60481349
C       -8.40507648       1.41829632       0.85205258
C       -8.78338875       0.94469752      -0.19054994
Br      -9.39508769       0.17892830      -1.87635002
C        0.88176238      -0.88176238       0.88176238
C        2.21526546      -0.53428120       1.09308848
C        3.02270676      -1.34616584       1.89357053
C        2.49283123      -2.49732240       2.49072139
C        1.15411112      -2.84461564       2.26540829
C        0.34847324      -2.03341636       1.46072814
C        3.38949901      -3.33751621       3.32760012
O        4.59612899      -3.36485949       3.11139296
N        2.79708465      -4.01783587       4.36848281
C        3.57815058      -4.81358636       5.30313421
C        4.54046740      -4.00838145       6.17611893
N        3.86644017      -2.99174848       6.96000171
N        3.02143567      -3.35371146       7.95121725
C        2.60073252      -2.18373803       8.44666881
C        3.16756714      -1.09804600       7.76848573
C        3.98239060      -1.63789175       6.81086930
H        2.63661636       0.35840193       0.63779206
H        4.06590650      -1.07886334       2.05159246
H        0.73307131      -3.75557808       2.68180188
H       -0.68734176      -2.31248890       1.28311524
H        1.85014618      -3.78294672       4.63972451
H        4.14969242      -5.54466789       4.72014531
H        2.86174389      -5.36631827       5.92086889
H        5.30755331      -3.50990777       5.57438318
H        5.05523332      -4.66865725       6.88316516
H        1.90287603      -2.18245652       9.27370626
H        4.61766720      -1.19605911       6.05576403
C        2.92024352       0.29275819       8.04794006
C        2.71310998       1.45755670       8.28198305
Br       2.37819258       3.34093738       8.66041077
