113
Properties=species:S:1:pos:R:3 pbc="F F F"
C        0.00000000       0.00000000       0.00000000
C        0.88229740       0.88229740      -0.88229740
C        0.54849630       2.22356300      -1.06850652
C        1.36085120       3.03520656      -1.85989006
C        2.49816769       2.50016699      -2.46809733
C        2.82128402       1.14791113      -2.29500152
C        2.01553107       0.33732208      -1.48677166
C        4.04412501       0.62424040      -2.96202638
O        4.98491147       1.36854794      -3.20714261
N        4.03541640      -0.71382860      -3.30143377
C        5.14424024      -1.30576923      -4.03421719
C        6.39436398      -1.47983845      -3.17816369
N        7.47328983      -2.08165984      -3.93645909
N        7.53977209      -3.42542348      -4.05767752
C        8.64457832      -3.61953584      -4.78789781
C        9.25566698      -2.40888289      -5.13618980
Br      10.80677608      -2.22354968      -6.15428741
C        8.48374829      -1.42477240      -4.57991955
H       -0.33429688       2.64699320      -0.59570197
H        1.11185035       4.08446777      -2.00117013
H        3.13202560       3.13964605      -3.08032545
H        2.27614742      -0.70022280      -1.30104993
H        3.17212088      -1.23929198      -3.24811227
H        5.35796332      -0.67053840      -4.90234362
H        4.79682445      -2.27383989      -4.41275182
H        6.19202145      -2.12627761      -2.31584113
H        6.75841594      -0.52353384      -2.78799151
H        8.94543415      -4.63042917      -5.02971291
H        8.55934270      -0.34630733      -4.58116805
C       -0.88229740      -0.88229740      -0.88229740
C       -1.27701461      -0.42441830      -2.13913290
C       -2.06862012      -1.23414652      -2.95318117
C       -2.46880548      -2.49405668      -2.50356987
C       -2.08680600      -2.94435876      -1.23303192
C       -1.27798875      -2.13883806      -0.42279800
C       -2.53663338      -4.29481043      -0.79894797
O       -2.76678998      -5.16819958      -1.62561246
N       -2.69918031      -4.48280958       0.55896832
C       -3.21798304      -5.73723486       1.08252970
C       -2.20955114      -6.87798643       0.99484837
N       -2.75562136      -8.10738330       1.53491557
N       -2.69392541      -8.34192498       2.86382426
C       -3.26203082      -9.54664629       2.99573681
C       -3.69167300     -10.05535641       1.76405551
Br      -4.54139365     -11.69355652       1.49743636
C       -3.35891957      -9.11081702       0.83084115
H       -0.96673838       0.55455254      -2.49621245
H       -2.37169544      -0.88733214      -3.93846067
H       -3.08208309      -3.12447998      -3.14543404
H       -0.93132366      -2.49001816       0.54436728
H       -2.67735992      -3.68553395       1.18195270
H       -4.13074306      -5.98733777       0.52831229
H       -3.50551336      -5.55440913       2.12418610
H       -1.29976170      -6.64112272       1.55929945
H       -1.90713900      -7.07703992      -0.03869470
H       -3.33535234      -9.98962608       3.98026053
H       -3.49077435      -9.06232533      -0.24110374
C       -0.88229740       0.88229740       0.88229740
C       -0.30465634       1.62193525       1.91397423
C       -1.10498166       2.44062159       2.71034457
C       -2.47993118       2.50948763       2.47701321
C       -3.06090246       1.75115411       1.45214010
C       -2.25528306       0.94262113       0.64172061
C       -4.53001613       1.85922884       1.24114681
O       -5.12830073       2.88170073       1.55060056
N       -5.15967602       0.74977007       0.71357549
C       -6.60492645       0.71898650       0.54877525
C       -7.08937787       1.60073291      -0.59742157
N       -8.53058187       1.53678763      -0.73928042
N       -9.09034616       0.53843382      -1.45675385
C      -10.40098976       0.80147756      -1.38952702
C      -10.66230617       1.94362634      -0.62295863
Br     -12.34848734       2.65515909      -0.26613262
C       -9.44210093       2.40480482      -0.20801031
H        0.76566308       1.57474761       2.09931376
H       -0.65953527       3.02776217       3.51019081
H       -3.09930323       3.15459343       3.09810045
H       -2.67953458       0.38550662      -0.18806665
H       -4.65948219      -0.12766127       0.64912025
H       -7.06341744       1.03157808       1.49477301
H       -6.88499389      -0.32663940       0.37738190
H       -6.64639526       1.28457652      -1.54938681
H       -6.81870464       2.65115792      -0.44698894
H      -11.09638339       0.14783418      -1.89949968
H       -9.14619550       3.24922392       0.39878399
C        0.88229740      -0.88229740       0.88229740
C        1.67295143      -1.87080917       0.29680521
C        2.49149023      -2.66660494       1.09785265
C        2.50936234      -2.47608475       2.48098493
C        1.70014827      -1.49506727       3.06898113
C        0.89146209      -0.68474453       2.26341819
C        1.75494821      -1.32869077       4.54675280
O        2.76758587      -1.62507309       5.16794306
N        0.60961753      -0.85711437       5.15628967
C        0.52795690      -0.74048299       6.60424831
C        1.35623293       0.41656033       7.15301661
N        1.24231868       0.50936049       8.59513089
N        0.20400206       1.17641989       9.14444396
C        0.42765948       1.07490234      10.46018317
C        1.58534533       0.33661136      10.73423992
Br       2.25462036      -0.05229458      12.43059887
C        2.09800693      -0.02367090       9.51721761
H        1.66557360      -2.02261650      -0.77979182
H        3.11809358      -3.43263165       0.64676301
H        3.15449754      -3.09635925       3.10114032
H        0.29454761       0.11282842       2.69525535
H       -0.25324729      -0.80410017       4.63008828
H        0.85656211      -1.69057820       7.04262823
H       -0.53099899      -0.61133127       6.85540410
H        1.02338366       1.37199990       6.73020121
H        2.41900487       0.30819337       6.91206212
H       -0.26382260       1.54112379      11.14966428
H        2.97062997      -0.59360210       9.22997134
