134
Properties=species:S:1:pos:R:3 pbc="F F F"
C        1.79220143       1.79220143      -1.79220143
C        1.45840032       3.13346702      -1.97841054
C        2.27075522       3.94511059      -2.76979408
C        3.40807172       3.41007102      -3.37800136
C        3.73118805       2.05781516      -3.20490555
C        2.92543509       1.24722611      -2.39667568
C        4.95402903       1.53414442      -3.87193040
O        5.89481550       2.27845196      -4.11704664
N        4.94532043       0.19607543      -4.21133779
C        6.05414426      -0.39586520      -4.94412122
C        7.30426800      -0.56993443      -4.08806771
N        8.38319386      -1.17175582      -4.84636311
N        8.44967611      -2.51551945      -4.96758155
C        9.55448235      -2.70963181      -5.69780184
C       10.16557101      -1.49897887      -6.04609383
Br      11.71668010      -1.31364566      -7.06419144
C        9.39365231      -0.51486837      -5.48982357
H        0.57560715       3.55689722      -1.50560599
H        2.02175437       4.99437179      -2.91107415
H        4.04192963       4.04955008      -3.99022948
H        3.18605144       0.20968122      -2.21095396
H        4.08202491      -0.32938795      -4.15801629
H        6.26786735       0.23936562      -5.81224764
H        5.70672848      -1.36393586      -5.32265584
H        7.10192547      -1.21637358      -3.22574515
H        7.66831997       0.38637019      -3.69789554
H        9.85533818      -3.72052514      -5.93961693
H        9.46924672       0.56359669      -5.49107207
C       -1.79220143      -1.79220143      -1.79220143
C       -1.78092992      -3.17538424      -1.61396373
C       -2.59731407      -3.98172118      -2.40662464
C       -3.41461872      -3.40229862      -3.37922676
C       -3.41034949      -2.01420765      -3.56935161
C       -2.60386123      -1.20324893      -2.76222672
C       -4.29964020      -1.44335879      -4.61710487
O       -5.33002307      -2.02098572      -4.93930531
N       -3.88221505      -0.26593498      -5.20458361
C       -4.63305376       0.32983806      -6.29918458
C       -5.94305500       0.96367382      -5.84302010
N       -6.65797263       1.55628785      -6.95611637
N       -6.35402631       2.80980606      -7.35751795
C       -7.20297655       3.02912003      -8.36879585
C       -8.01964360       1.91788432      -8.61092668
Br      -9.32966448       1.79451471      -9.93207611
C       -7.65199868       0.97381141      -7.69042025
H       -1.14874653      -3.63264417      -0.85671966
H       -2.60085070      -5.06021979      -2.26612983
H       -4.05425208      -4.03596065      -3.99149645
H       -2.62322077      -0.12217352      -2.86129234
H       -2.94240124       0.07136164      -5.03961365
H       -4.82282046      -0.44938132      -7.04727882
H       -3.98169364       1.07930338      -6.76305819
H       -5.76003114       1.75430084      -5.10556674
H       -6.60948893       0.23164430      -5.37474106
H       -7.18135207       3.98409570      -8.87717359
H       -7.99812838      -0.03144921      -7.49433790
C       -1.79220143       1.79220143       1.79220143
C       -3.13951271       1.47244181       1.95832336
C       -3.94324433       2.26642072       2.77599484
C       -3.39837988       3.38091833       3.41684588
C       -2.04918438       3.71114253       3.23358184
C       -1.23820601       2.90448537       2.42664550
C       -1.51401618       4.90727995       3.93880773
O       -2.01569856       5.28455447       4.99006107
N       -0.46114147       5.56095270       3.33063947
C        0.07902051       6.79003564       3.89138515
C        0.89250739       6.55507235       5.15983633
N        1.42372617       7.79797714       5.68355019
N        2.58484249       8.28866908       5.19791162
C        2.77272168       9.40795224       5.90742182
C        1.73101986       9.62664147       6.81706435
Br       1.59216989      11.06979036       7.98960542
C        0.86616383       8.57774691       6.65702444
H       -3.56936600       0.60456666       1.46417769
H       -4.99233006       2.01701233       2.91785793
H       -4.02896956       3.99413010       4.05860952
H       -0.17945800       3.11585614       2.31137248
H       -0.20565580       5.32469710       2.38030034
H       -0.75729061       7.47078014       4.09140986
H        0.69918244       7.25065938       3.11397152
H        1.73956108       5.88679017       4.96406796
H        0.29163016       6.09362226       5.95059359
H        3.65563506      10.00604940       5.72401562
H       -0.06891357       8.32031459       7.13468733
C        1.79220143      -1.79220143       1.79220143
C        3.13914380      -1.47154758       1.95958650
C        3.94285747      -2.26553706       2.77726536
C        3.39835267      -3.38093234       3.41685909
C        2.04954699      -3.71203919       3.23232257
C        1.23856884      -2.90538509       2.42538295
C        1.51475154      -4.90911567       3.93623665
O        2.01592345      -5.28680676       4.98758388
N        0.46283340      -5.56312447       3.32677578
C       -0.07682145      -6.79304074       3.88618099
C       -0.89144652      -6.55965494       5.15419286
N       -1.42211964      -7.80335821       5.67656259
N       -2.58249564      -8.29456112       5.18967272
C       -2.77006376      -9.41452363       5.89819250
C       -1.72888567      -9.63311326       6.80845838
Br      -1.58983002     -11.07704479       7.98001111
C       -0.86470386      -8.58344306       6.64986832
H        3.56871333      -0.60297291       1.46642412
H        4.99164615      -2.01544186       2.92011231
H        4.02892071      -3.99415259       4.05863589
H        0.18006892      -3.11747016       2.30914754
H        0.20788851      -5.32634225       2.37642248
H        0.75985363      -7.47330310       4.08632388
H       -0.69604520      -7.25354468       3.10794898
H       -1.73885794      -5.89186625       4.95828873
H       -0.29151818      -6.09834937       5.94575450
H       -3.65238447     -10.01315008       5.71366435
H        0.06981617      -8.32566477       7.12843455
C       -0.00445707       0.01189536      -1.78238275
H       -0.66409135       0.67374010      -2.43557963
H        0.65740317      -0.63156657      -2.45157240
C       -0.90989263      -0.90692880      -0.91072765
C        0.90977584       0.90977584      -0.90977584
C       -0.00465871       1.77757030       0.00794375
H       -0.66225468       2.44313916      -0.64384735
H        0.64322798       2.43503045       0.67728295
C       -1.78241447       0.00034974      -0.00472694
H       -2.45427497      -0.65498947       0.64260836
H       -2.43311707       0.67328779      -0.65473579
C       -0.91132561       0.90220522       0.91563759
C       -0.01476271      -0.02253852       1.78660255
H       -0.67934791      -0.69751639       2.42135241
H        0.63392994       0.61504881       2.47327442
C        0.01484550      -1.77751727      -0.01636693
H        0.67870853      -2.42144646      -0.68295456
H       -0.62264859      -2.45592969       0.64226336
C        1.78714474       0.01002794       0.00389507
H        2.44202412       0.67113390       0.66197326
H        2.45385902      -0.65136977      -0.64189061
C        0.91606151      -0.90478549       0.90901405
