129
Properties=species:S:1:pos:R:3 pbc="F F F"
C        0.00000000       0.00000000       0.00000000
C        0.87868743       0.87868743      -0.87868743
C        1.65061188       0.32545317      -1.88996032
C        2.43927931       1.16926158      -2.67275141
C        2.44223172       2.53883184      -2.41422772
N        1.69570894       3.08103335      -1.43098201
C        0.93072791       2.24864692      -0.68938729
N        3.25618514       3.32140574      -3.21641776
C        3.54660434       4.66349836      -3.09348881
O        3.12944918       5.44952599      -2.24539546
C        4.60178359       5.07058719      -4.14683248
H        4.43814438       6.12077116      -4.40911511
O        4.46844586       4.26752398      -5.34083352
N        5.42601712       3.20319453      -5.25927457
C        6.29195472       3.48927932      -4.27345674
C        6.00366603       4.80528214      -3.64321263
C        7.35313046       2.55878890      -3.87047946
C        7.63711072       1.41575214      -4.63725728
C        8.63050510       0.50829616      -4.25815822
C        9.36194923       0.72902426      -3.09573121
C        9.09775866       1.86124721      -2.32861874
Br      10.08871522       2.16212582      -0.74384518
C        8.10876921       2.77195948      -2.71030224
H        1.65504322      -0.74309261      -2.07745430
H        3.05984067       0.75948244      -3.46476349
H        0.34787853       2.74257453       0.08121192
H        3.77610855       2.90397361      -3.99896659
H        6.05534562       4.80075784      -2.55080912
H        6.70265017       5.55754992      -4.02615927
H        7.07379863       1.23276708      -5.55099998
H        8.82220206      -0.36409436      -4.87496372
H       10.12811086       0.02041625      -2.79929337
H        7.92118736       3.64414962      -2.09312062
C       -0.87868743      -0.87868743      -0.87868743
C       -1.14047458      -2.19566000      -0.52989079
C       -1.95358940      -2.96380100      -1.36390190
C       -2.47109414      -2.39693193      -2.52726522
N       -2.21756349      -1.11826077      -2.87190004
C       -1.43547583      -0.38691720      -2.04636910
N       -3.25922070      -3.21459870      -3.32018924
C       -3.77831582      -2.95463575      -4.57063994
O       -3.65587139      -1.92993705      -5.23856219
C       -4.49024029      -4.21367478      -5.11528819
H       -5.30267916      -3.89104280      -5.77430868
O       -5.05047962      -4.99204990      -4.03427384
N       -4.12218567      -6.04059532      -3.72570522
C       -3.22193351      -6.11316638      -4.71959090
C       -3.51007846      -5.13749452      -5.80458783
C       -2.07799923      -7.03160086      -4.67279872
C       -1.99011557      -8.02121806      -3.67878650
C       -0.89858335      -8.89151088      -3.60686525
C        0.13291329      -8.78552580      -4.53409219
C        0.05725132      -7.81475676      -5.53011918
Br       1.46157463      -7.66535421      -6.79090664
C       -1.03664431      -6.94827176      -5.60611486
H       -0.72338153      -2.63575239       0.36972902
H       -2.16595556      -4.00042397      -1.11770706
H       -1.27245840       0.63526623      -2.37204897
H       -3.49189396      -4.16928213      -3.01787266
H       -2.62984410      -4.60354026      -6.17352822
H       -3.98792439      -5.65295819      -6.64547678
H       -2.79225748      -8.11671271      -2.94859550
H       -0.86433188      -9.64371594      -2.82502361
H        0.98256516      -9.45736390      -4.47302175
H       -1.06919291      -6.19917701      -6.39008767
C       -0.87868743       0.87868743       0.87868743
C       -2.24875149       0.67130764       0.94596623
C       -3.01520166       1.49936431       1.76672633
C       -2.39172163       2.51713724       2.48643241
N       -1.06091659       2.72431114       2.42249656
C       -0.33369685       1.90578139       1.62928388
N       -3.20843277       3.31370866       3.27186720
C       -2.87797580       4.45575597       3.96985973
O       -1.77795393       4.99893870       4.04747800
C       -4.14788700       5.07160369       4.59971257
H       -3.85852541       5.59003372       5.51947151
O       -5.10623983       4.04138888       4.92917466
N       -6.05751643       3.97265468       3.85831511
C       -5.90494842       5.06194534       3.08779702
C       -4.85837640       5.97663152       3.61715289
C       -6.67164060       5.25895034       1.85180787
C       -7.74699982       4.41336867       1.52975165
C       -8.47563010       4.57370133       0.34762805
C       -8.13797481       5.58946288      -0.54073299
C       -7.07943342       6.44076478      -0.23257359
Br      -6.61487405       7.82146674      -1.44165457
C       -6.35439953       6.28466388       0.95196751
H       -2.73046887      -0.11362337       0.37255940
H       -4.09124493       1.36337523       1.82946643
H        0.73077170       2.11643551       1.62357733
H       -4.21251755       3.10982470       3.35670650
H       -4.18014718       6.37134790       2.85541750
H       -5.33280700       6.81708468       4.13646769
H       -8.02348529       3.61610356       2.21797683
H       -9.30003484       3.90142479       0.13161179
H       -8.70018952       5.70854753      -1.46091656
H       -5.53260890       6.95962245       1.16622625
C        0.87868743      -0.87868743       0.87868743
C        1.15886200      -2.18876474       0.51839863
C        1.97124932      -2.95714279       1.35290018
C        2.46965649      -2.39756348       2.52807132
N        2.19820753      -1.12564630       2.88387047
C        1.41715846      -0.39381508       2.05778858
N        3.25805785      -3.21527983       3.32067095
C        3.76050202      -2.96351710       4.57957239
O        3.61939442      -1.94768760       5.25728861
C        4.48032371      -4.22063575       5.11824380
H        5.28186436      -3.89644135       5.78972493
O        5.06097112      -4.98079446       4.03503778
N        4.14779327      -6.03596807       3.70472488
C        3.23756038      -6.12941353       4.68771688
C        3.50296389      -5.16272668       5.78647024
C        2.10445694      -7.05975699       4.61818489
C        2.03844761      -8.03920071       3.61247181
C        0.95748177      -8.92055545       3.51892226
C       -0.08522790      -8.83616631       4.43576629
C       -0.03125198      -7.87572476       5.44315184
Br      -1.45088052      -7.75570697       6.68985976
C        1.05207453      -6.99819663       5.54075977
H        0.75655826      -2.62340516      -0.39055853
H        2.19777715      -3.98858342       1.09772602
H        1.23926213       0.62284776       2.39282676
H        3.50459736      -4.16394628       3.01050511
H        2.61287458      -4.64257487       6.15146313
H        3.97724727      -5.68220936       6.62690274
H        2.84955436      -8.11779847       2.89021285
H        0.94014120      -9.66437946       2.72855077
H       -0.92666119      -9.51655935       4.35792233
H        1.06772355      -6.25752483       6.33320922
