158
Properties=species:S:1:pos:R:3 pbc="F F F"
C        1.78859146       1.78859146      -1.78859146
C        2.56051591       1.23535719      -2.79986434
C        3.34918334       2.07916560      -3.58265543
C        3.35213575       3.44873586      -3.32413175
N        2.60561296       3.99093737      -2.34088604
C        1.84063193       3.15855094      -1.59929131
N        4.16608916       4.23130976      -4.12632178
C        4.45650837       5.57340238      -4.00339283
O        4.03935320       6.35943002      -3.15529949
C        5.51168762       5.98049122      -5.05673650
H        5.34804840       7.03067518      -5.31901913
O        5.37834989       5.17742800      -6.25073755
N        6.33592114       4.11309855      -6.16917860
C        7.20185875       4.39918335      -5.18336076
C        6.91357006       5.71518616      -4.55311666
C        8.26303448       3.46869292      -4.78038348
C        8.54701474       2.32565616      -5.54716130
C        9.54040912       1.41820018      -5.16806224
C       10.27185325       1.63892828      -4.00563524
C       10.00766269       2.77115124      -3.23852277
C        9.01867323       3.68186351      -3.62020626
H        2.56494724       0.16681142      -2.98735832
H        3.96974469       1.66938646      -4.37466751
H        1.25778255       3.65247855      -0.82869211
H        4.68601258       3.81387763      -4.90887061
H        6.96524965       5.71066187      -3.46071314
H        7.61255419       6.46745395      -4.93606330
H        7.98370265       2.14267110      -6.46090400
H        9.73210608       0.54580967      -5.78486775
H       11.03801488       0.93032028      -3.70919740
H        8.83109138       4.55405364      -3.00302464
C       10.76141956       3.00001023      -2.03308752
C       11.39269094       3.19167963      -1.02353550
Br      12.41340337       3.50159285       0.60882473
C       -1.78859146      -1.78859146      -1.78859146
C       -2.24188098      -3.01880888      -1.33504758
C       -3.04738109      -3.79003368      -2.17358959
C       -3.36612335      -3.31452041      -3.44435960
N       -2.92601278      -2.12072878      -3.89069481
C       -2.15463772      -1.38352761      -3.06030886
N       -4.15727397      -4.13237899      -4.23406775
C       -4.50502798      -3.97005341      -5.55822219
O       -4.19019460      -3.05165140      -6.31223671
C       -5.30030584      -5.20198388      -6.04662562
H       -5.99324524      -4.87568316      -6.82881431
O       -6.06188061      -5.78106110      -4.96357373
N       -5.30407014      -6.87819736      -4.43593078
C       -4.31805325      -7.16491839      -5.30143122
C       -4.36983444      -6.30100108      -6.51103736
C       -3.30387145      -8.18798755      -5.02025189
C       -3.44171431      -9.05518118      -3.92293672
C       -2.47617587     -10.02212931      -3.62836637
C       -1.34635559     -10.13863831      -4.43142287
C       -1.19849049      -9.29159478      -5.52725142
C       -2.16638258      -8.32864059      -5.82571983
H       -1.97891630      -3.39003946      -0.35016122
H       -3.40737514      -4.76109013      -1.84533339
H       -1.83659606      -0.43097030      -3.47138685
H       -4.53349488      -5.01367054      -3.86159540
H       -3.39768942      -5.91210114      -6.82683410
H       -4.81342459      -6.85943733      -7.34320951
H       -4.32285790      -8.97639086      -3.28802899
H       -2.61588439     -10.67465778      -2.77224133
H       -0.59465029     -10.88517677      -4.19770550
H       -2.02513804      -7.67961908      -6.68341254
C       -0.02815485      -9.40826679      -6.35809566
C        0.95200124      -9.50597960      -7.05392771
Br       2.53683074      -9.66397295      -8.17902928
C       -1.78859146       1.78859146       1.78859146
C       -3.13410747       1.49895428       1.96267569
C       -3.90129658       2.33045836       2.77924943
C       -3.30414552       3.43297395       3.38788388
N       -1.99748726       3.72011979       3.21982932
C       -1.26824313       2.89747351       2.43275755
N       -4.12148143       4.22749247       4.17474681
C       -3.82596307       5.43347440       4.77386611
O       -2.76301011       6.05005541       4.74101719
C       -5.09209483       6.00837616       5.44844435
H       -4.78058020       6.60604137       6.31112115
O       -5.95457233       4.94386063       5.90808248
N       -6.96555903       4.74115503       4.91148423
C       -6.93761872       5.78265917       4.06412497
C       -5.92437663       6.79661493       4.46088131
C       -7.79361054       5.84504058       2.87345977
C       -8.82696352       4.91223533       2.68063336
C       -9.63909893       4.94423302       1.54333961
C       -9.42940205       5.91632103       0.57069369
C       -8.41407484       6.85279222       0.75046963
C       -7.60565486       6.82494276       1.89014538
H       -3.59669125       0.64735498       1.47507074
H       -4.95926669       2.13042403       2.92410794
H       -0.22325537       3.17500768       2.34069016
H       -5.10174514       3.96598596       4.34102972
H       -5.32496767       7.18088525       3.63077173
H       -6.42099502       7.63852866       4.95654777
H       -9.00354414       4.14789568       3.43583794
H      -10.42767653       4.20730864       1.42779833
H      -10.05624859       5.93585087      -0.31456691
H       -6.81997610       7.56424952       2.00394404
C       -8.19310692       7.85804030      -0.25662991
C       -8.00804628       8.69993556      -1.10007577
Br      -7.70881887      10.06120900      -2.46385639
C        1.78859146      -1.78859146       1.78859146
C        1.72016716      -3.17161809       1.70395219
C        2.54620001      -3.93787945       2.52692491
C        3.40719562      -3.29977434       3.41803339
N        3.47559404      -1.95602353       3.50581880
C        2.67445184      -1.23042580       2.69359656
N        4.19101348      -4.11529576       4.21741148
C        5.01716343      -3.75537007       5.26077009
O        5.23755913      -2.62523676       5.69128681
C        5.59153774      -5.02141238       5.93596522
H        6.57650881      -4.77557242       6.34566148
O        5.74192596      -6.08989865       4.97469083
N        4.59263384      -6.94037459       5.08518986
C        3.94192850      -6.62548975       6.21698461
C        4.64035215      -5.55874352       6.98277720
C        2.66903019      -7.25506090       6.58801980
C        2.18022781      -8.36370255       5.87590185
C        0.96059772      -8.96360196       6.20247186
C        0.20184301      -8.46040960       7.25416416
C        0.67596404      -7.36668261       7.97469004
C        1.89807975      -6.77021669       7.65244656
H        1.03786534      -3.66290930       1.01834233
H        2.50476953      -5.02274370       2.48628544
H        2.77839584      -0.15600271       2.80455465
H        4.17131552      -5.13656246       4.10088284
H        3.97857634      -4.78195864       7.37608968
H        5.19318757      -6.00634348       7.81654039
H        2.76582692      -8.76918954       5.05226130
H        0.61428103      -9.81841412       5.63008835
H       -0.74764557      -8.92294165       7.50223648
H        2.24267973      -5.91760830       8.22788163
C       -0.10933472      -6.84209528       9.06175674
C       -0.76702243      -6.40275340       9.97217510
Br      -1.83044783      -5.69237473      11.44424458
C       -0.00445707       0.01189536      -1.78238275
H       -0.66409135       0.67374010      -2.43557963
H        0.65740317      -0.63156657      -2.45157240
C       -0.90989263      -0.90692880      -0.91072765
C        0.90977584       0.90977584      -0.90977584
C       -0.00465871       1.77757030       0.00794375
H       -0.66225468       2.44313916      -0.64384735
H        0.64322798       2.43503045       0.67728295
C       -1.78241447       0.00034974      -0.00472694
H       -2.45427497      -0.65498947       0.64260836
H       -2.43311707       0.67328779      -0.65473579
C       -0.91132561       0.90220522       0.91563759
C       -0.01476271      -0.02253852       1.78660255
H       -0.67934791      -0.69751639       2.42135241
H        0.63392994       0.61504881       2.47327442
C        0.01484550      -1.77751727      -0.01636693
H        0.67870853      -2.42144646      -0.68295456
H       -0.62264859      -2.45592969       0.64226336
C        1.78714474       0.01002794       0.00389507
H        2.44202412       0.67113390       0.66197326
H        2.45385902      -0.65136977      -0.64189061
C        0.91606151      -0.90478549       0.90901405
