137
Properties=species:S:1:pos:R:3 pbc="F F F"
C        0.00000000       0.00000000       0.00000000
C        0.87868743       0.87868743      -0.87868743
C        1.65061188       0.32545317      -1.88996032
C        2.43927931       1.16926158      -2.67275141
C        2.44223172       2.53883184      -2.41422772
N        1.69570894       3.08103335      -1.43098201
C        0.93072791       2.24864692      -0.68938729
N        3.25618514       3.32140574      -3.21641776
C        3.54660434       4.66349836      -3.09348881
O        3.12944918       5.44952599      -2.24539546
C        4.60178359       5.07058719      -4.14683248
H        4.43814438       6.12077116      -4.40911511
O        4.46844586       4.26752398      -5.34083352
N        5.42601712       3.20319453      -5.25927457
C        6.29195472       3.48927932      -4.27345674
C        6.00366603       4.80528214      -3.64321263
C        7.35313046       2.55878890      -3.87047946
C        7.63711072       1.41575214      -4.63725728
C        8.63050510       0.50829616      -4.25815822
C        9.36194923       0.72902426      -3.09573121
C        9.09775866       1.86124721      -2.32861874
C        8.10876921       2.77195948      -2.71030224
H        1.65504322      -0.74309261      -2.07745430
H        3.05984067       0.75948244      -3.46476349
H        0.34787853       2.74257453       0.08121192
H        3.77610855       2.90397361      -3.99896659
H        6.05534562       4.80075784      -2.55080912
H        6.70265017       5.55754992      -4.02615927
H        7.07379863       1.23276708      -5.55099998
H        8.82220206      -0.36409436      -4.87496372
H       10.12811086       0.02041625      -2.79929337
H        7.92118736       3.64414962      -2.09312062
C        9.85151553       2.09010620      -1.12318349
C       10.48278692       2.28177561      -0.11363147
Br      11.50349935       2.59168882       1.51872876
C       -0.87868743      -0.87868743      -0.87868743
C       -0.80994942      -2.26171746      -0.79435848
C       -1.63599439      -3.02797949      -1.61731842
C       -2.49731687      -2.38986801      -2.50810640
N       -2.56602129      -1.04611311      -2.59558989
C       -1.76486057      -0.32051775      -1.78338380
N       -3.28113128      -3.20538609      -3.30749126
C       -4.10758120      -2.84541403      -4.35059628
O       -4.32831050      -1.71523587      -4.78082426
C       -4.68182922      -4.11143476      -5.02593929
H       -5.66694038      -3.86571782      -5.43537243
O       -4.83178352      -5.18015861      -4.06486124
N       -3.68233329      -6.03036518      -4.17578775
C       -3.03193726      -5.71509931      -5.30765422
C       -3.73075263      -4.64833876      -6.07306942
C       -1.75898376      -6.34431897      -5.67909608
C       -1.26979219      -7.45300828      -4.96731967
C       -0.05010374      -8.05257711      -5.29427862
C        0.70831852      -7.54899775      -6.34602548
C        0.23380969      -6.45521816      -7.06621615
C       -0.98836457      -5.85908244      -6.74358392
H       -0.12739603      -2.75300933      -0.10899954
H       -1.59432333      -4.11284351      -1.57691976
H       -1.86905795       0.75390679      -1.89408997
H       -3.26119012      -4.22667345      -3.19118518
H       -3.06922697      -3.87132835      -6.46635726
H       -4.28367060      -5.09587867      -6.90681009
H       -1.85512849      -7.85879652      -4.14364067
H        0.29651803      -8.90743754      -4.72215192
H        1.65785289      -8.01127375      -6.59439963
H       -1.33326980      -5.00642476      -7.31876303
C        1.01876387      -5.93023060      -8.15333850
C        1.67616299      -5.49055352      -9.06380346
Br       2.73912177      -4.77963287     -10.53594831
C       -0.87868743       0.87868743       0.87868743
C       -2.24677660       0.66231355       0.95693521
C       -3.01328018       1.49074537       1.77726675
C       -2.39193996       2.51779058       2.48556074
N       -1.06308338       2.73371042       2.41093050
C       -0.33568420       1.91472562       1.61835230
N       -3.20872713       3.31414523       3.27113628
C       -2.88141119       4.46328175       3.95889858
O       -1.78468727       5.01458414       4.02509922
C       -4.15119407       5.07470485       4.59330435
H       -3.85909662       5.60151392       5.50742010
O       -5.10005052       4.04020741       4.93654544
N       -6.05820660       3.95744415       3.87283547
C       -5.91855688       5.04237284       3.09376106
C       -4.87474340       5.96793626       3.60948114
C       -6.69512919       5.22546255       1.86180706
C       -7.76677635       4.37024450       1.55309928
C       -8.50466087       4.51730181       0.37499680
C       -8.18023562       5.52916418      -0.52269510
C       -7.12554139       6.38988916      -0.22780593
C       -6.39126584       6.24705537       0.95270971
H       -2.72697055      -0.12990229       0.39233664
H       -4.08789111       1.34775999       1.84843549
H        0.72722708       2.13268949       1.60377873
H       -4.21075756       3.10391960       3.36437160
H       -4.20456141       6.36201962       2.84033155
H       -5.35141193       6.80868428       4.12626315
H       -8.03293963       3.57589763       2.24872843
H       -9.32583904       3.83785387       0.16937852
H       -8.74961438       5.63794967      -1.43974356
H       -5.57273248       6.92915489       1.15657022
C       -6.78586808       7.43609004      -1.15715288
C       -6.50139168       8.31228327      -1.93548096
Br      -6.04141741       9.72901363      -3.19397163
C        0.87868743      -0.87868743       0.87868743
C        1.50123850      -2.00475705       0.36002981
C        2.29993851      -2.77983789       1.20151590
C        2.44325240      -2.41344331       2.53859557
N        1.83829863      -1.32139869       3.04802698
C        1.07620048      -0.57758841       2.21497323
N        3.23737368      -3.23087478       3.32576018
C        3.43750265      -3.17733587       4.68875300
O        2.95627383      -2.37848454       5.48961227
C        4.30848464      -4.37223919       5.13847943
H        4.88478046      -4.06586542       6.01738475
O        5.22740106      -4.75755972       4.09184259
N        4.64426730      -5.86006655       3.38415237
C        3.61587297      -6.33008458       4.10873323
C        3.45963304      -5.59835810       5.39416967
C        2.74753554      -7.40998073       3.62488254
C        3.08104433      -8.13869478       2.47038103
C        2.25618184      -9.15696623       1.98381141
C        1.07338999      -9.46567178       2.64764292
C        0.73224124      -8.75770338       3.79768000
C        1.55948339      -7.74357283       4.28797471
H        1.37468538      -2.29291547      -0.67819595
H        2.79066541      -3.67163061       0.82179057
H        0.62102379       0.29113008       2.67934742
H        3.73887642      -4.02758031       2.91259202
H        2.42597190      -5.34006287       5.64087781
H        3.87818092      -6.19682619       6.21135226
H        4.00560526      -7.90897425       1.94298618
H        2.54566752      -9.69861894       1.08878496
H        0.43096142     -10.25176658       2.26509248
H        1.26869922      -7.20570447       5.18405390
C       -0.49329460      -9.07339823       4.48470160
C       -1.51968086      -9.33779267       5.06008219
Br      -3.17926064      -9.76529611       5.99042394
