142
Properties=species:S:1:pos:R:3 pbc="F F F"
C        1.79192509       1.79192509      -1.79192509
C        1.80560035       1.59577523      -3.17070196
C        2.60416217       2.40751849      -3.97538507
C        3.38920886       3.40791057      -3.39906265
C        3.39031133       3.60243480      -2.00941040
C        2.57462803       2.78935785      -1.20821972
C        4.22538686       4.69942012      -1.39037701
N        3.49670535       5.95488732      -1.29767794
N        2.70877222       6.10972877      -0.19141177
N        2.01398008       7.13312852      -0.01910371
C        2.01068162       8.14396341      -0.98549790
C        1.20989827       9.27378463      -0.77913255
C        1.17472052      10.30826763      -1.72036126
C        1.94596622      10.21564134      -2.87786286
C        2.74871160       9.10146363      -3.10038769
C        2.76762421       8.07807667      -2.14518145
C        3.58405425       6.88060326      -2.31809262
O        4.28266660       6.75912926      -3.32059385
H        1.19620198       0.82041117      -3.62766044
H        2.61288585       2.26532352      -5.05336822
H        3.99843205       4.04239329      -4.04210803
H        2.54732312       2.94040845      -0.13155763
H        5.13996651       4.84288873      -1.97855975
H        4.55217471       4.40620304      -0.38471704
H        0.60634751       9.34750316       0.12329113
H        0.54435164      11.17588804      -1.54043102
H        3.35355844       9.01874223      -4.00045639
C        1.91019922      11.27891130      -3.84831518
C        1.88024436      12.16939989      -4.66106900
Br       1.83180988      13.60924463      -5.97522319
C       -1.79192509      -1.79192509      -1.79192509
C       -2.42008792      -1.24421729      -2.90777232
C       -3.21748608      -2.05254857      -3.71703107
C       -3.38803421      -3.40274529      -3.40540257
C       -2.76874796      -3.95807849      -2.27533008
C       -1.95824689      -3.14064093      -1.47331778
C       -2.93861270      -5.42455251      -1.95201878
N       -1.91846274      -6.24563838      -2.58516949
N       -0.73918378      -6.36628352      -1.90444546
N        0.21951993      -7.02136664      -2.36436560
C        0.10911543      -7.63128980      -3.61796855
C        1.20344507      -8.34522366      -4.12103685
C        1.13759351      -8.96971461      -5.37122830
C       -0.03077930      -8.88217996      -6.12651115
C       -1.12905947      -8.17817143      -5.64333201
C       -1.04028193      -7.56058541      -4.39001498
C       -2.15336668      -6.80345214      -3.82593131
O       -3.20339181      -6.70423646      -4.45476143
H       -2.29127156      -0.19449945      -3.15850258
H       -3.70379885      -1.63323858      -4.59454017
H       -4.00402967      -4.02455889      -4.05434481
H       -1.45384879      -3.55971735      -0.60572306
H       -3.93418175      -5.75882475      -2.26840848
H       -2.89450542      -5.58168869      -0.86690068
H        2.11673146      -8.41385453      -3.53343647
H        2.00012289      -9.51763256      -5.74316104
H       -2.04501226      -8.10288951      -6.22485529
C       -0.10003771      -9.52336633      -7.41402166
C       -0.15804163     -10.06035990      -8.49231172
Br      -0.25182906     -10.92863310     -10.23581554
C       -1.79192509       1.79192509       1.79192509
C       -2.44331156       2.89109832       1.23766766
C       -3.25525370       3.68991484       2.04189718
C       -3.40887266       3.39044108       3.39686834
C       -2.74512248       2.29229260       3.96474145
C       -1.93981062       1.48655457       3.14584041
C       -2.92951642       1.95854969       5.42711788
N       -4.04889556       1.05557087       5.64480418
N       -3.77814142      -0.27745174       5.50922308
N       -4.66726212      -1.14422429       5.64317449
C       -5.98349599      -0.75637731       5.91302425
C       -6.96670804      -1.74493309       6.04104050
C       -8.29633413      -1.40210083       6.30911610
C       -8.64868907      -0.06093712       6.45171847
C       -7.68588946       0.93568858       6.32898488
C       -6.36171214       0.56935834       6.05981184
C       -5.30353144       1.56419012       5.91502857
O       -5.56796250       2.75705756       6.03736965
H       -2.33053058       3.13031557       0.18342745
H       -3.77349271       4.54450168       1.61358320
H       -4.05658651       4.01661028       4.00973657
H       -1.43500643       0.61925142       3.56503136
H       -3.07978795       2.88184232       5.99978472
H       -2.01938636       1.49521475       5.82849368
H       -6.69386146      -2.79235358       5.92905166
H       -9.04392737      -2.18619673       6.40294006
H       -7.95023601       1.98504918       6.43747187
C      -10.01695131       0.29392044       6.72655395
C      -11.16287094       0.59111364       6.95672867
Br     -13.01572607       1.07164991       7.32890172
C        1.79192509      -1.79192509       1.79192509
C        2.72666074      -2.64095214       1.20446466
C        3.53729271      -3.43869307       2.01107994
C        3.40722361      -3.38870142       3.40025705
C        2.45851767      -2.54533348       3.99830538
C        1.65533062      -1.73695555       3.17991942
C        2.33406954      -2.47817214       5.50294231
N        3.20500625      -1.46544929       6.07881507
N        2.70483399      -0.19367685       6.11140191
N        3.37374327       0.76296694       6.55543599
C        4.67869071       0.54901313       7.01046535
C        5.41578518       1.63989215       7.48692241
C        6.72518264       1.47199870       7.95016547
C        7.30472753       0.20423997       7.93898286
C        6.58809344      -0.89215915       7.47031032
C        5.27955530      -0.70043900       7.01088802
C        4.47390186      -1.80629490       6.50255337
O        4.94273835      -2.94095219       6.47869916
H        2.83559595      -2.68475955       0.12391809
H        4.27501915      -4.09738876       1.55916968
H        4.05639182      -4.00877235       4.01776920
H        0.92959716      -1.06199612       3.62769592
H        2.56667441      -3.45859411       5.93614647
H        1.29809567      -2.25630745       5.78869168
H        4.96553209       2.63048531       7.49551276
H        7.27987417       2.33351892       8.31431545
H        7.03107328      -1.88532600       7.45635779
C        8.65274362       0.02967341       8.41435548
C        9.78170710      -0.11652610       8.81248005
Br      11.60714556      -0.35291833       9.45621382
C       -0.00445707       0.01189536      -1.78238275
H       -0.66409135       0.67374010      -2.43557963
H        0.65740317      -0.63156657      -2.45157240
C       -0.90989263      -0.90692880      -0.91072765
C        0.90977584       0.90977584      -0.90977584
C       -0.00465871       1.77757030       0.00794375
H       -0.66225468       2.44313916      -0.64384735
H        0.64322798       2.43503045       0.67728295
C       -1.78241447       0.00034974      -0.00472694
H       -2.45427497      -0.65498947       0.64260836
H       -2.43311707       0.67328779      -0.65473579
C       -0.91132561       0.90220522       0.91563759
C       -0.01476271      -0.02253852       1.78660255
H       -0.67934791      -0.69751639       2.42135241
H        0.63392994       0.61504881       2.47327442
C        0.01484550      -1.77751727      -0.01636693
H        0.67870853      -2.42144646      -0.68295456
H       -0.62264859      -2.45592969       0.64226336
C        1.78714474       0.01002794       0.00389507
H        2.44202412       0.67113390       0.66197326
H        2.45385902      -0.65136977      -0.64189061
C        0.91606151      -0.90478549       0.90901405
