121
Properties=species:S:1:pos:R:3 pbc="F F F"
C        0.00000000       0.00000000       0.00000000
C        0.88202107       0.88202107      -0.88202107
C        0.89569633       0.68587121      -2.26079793
C        1.69425814       1.49761446      -3.06548104
C        2.47930484       2.49800655      -2.48915862
C        2.48040731       2.69253077      -1.09950637
C        1.66472400       1.87945383      -0.29831569
C        3.31548284       3.78951610      -0.48047298
N        2.58680132       5.04498330      -0.38777391
N        1.79886820       5.19982474       0.71849225
N        1.10407606       6.22322450       0.89080031
C        1.10077760       7.23405938      -0.07559387
C        0.29999425       8.36388060       0.13077148
C        0.26481650       9.39836361      -0.81045723
C        1.03606219       9.30573731      -1.96795884
C        1.83880757       8.19155961      -2.19048366
C        1.85772018       7.16817264      -1.23527742
C        2.67415023       5.97069923      -1.40818860
O        3.37276257       5.84922524      -2.41068983
H        0.28629795      -0.08949285      -2.71775642
H        1.70298183       1.35541949      -4.14346420
H        3.08852803       3.13248927      -3.13220401
H        1.63741910       2.03050443       0.77834639
H        4.23006248       3.93298470      -1.06865572
H        3.64227069       3.49629902       0.52518698
H       -0.30355652       8.43759914       1.03319516
H       -0.36555238      10.26598401      -0.63052700
H        2.44365442       8.10883821      -3.09055236
C        1.00029519      10.36900728      -2.93841116
C        0.97034033      11.25949587      -3.75116498
Br       0.92190585      12.69934061      -5.06531917
C       -0.88202107      -0.88202107      -0.88202107
C       -1.57631743      -0.31704760      -1.94900044
C       -2.37377110      -1.12489537      -2.75868717
C       -2.47826252      -2.49213532      -2.49607216
C       -1.79194721      -3.06564370      -1.41485355
C       -0.98206575      -2.24788384      -0.61254394
C       -1.89071093      -4.54940485      -1.14535614
N       -0.86583840      -5.30258226      -1.85113788
N        0.34411834      -5.40155135      -1.22276767
N        1.30820612      -5.99831069      -1.74639568
C        1.17067685      -6.56252228      -3.01858542
C        2.27071977      -7.21079673      -3.59302641
C        2.17838351      -7.78786484      -4.86415601
C        0.97756721      -7.71857813      -5.56874742
C       -0.12684328      -7.07959327      -5.01441428
C       -0.01121888      -6.50860429      -3.74134708
C       -1.12918871      -5.82036370      -3.10348565
O       -2.20713576      -5.73954272      -3.68599916
H       -1.49919679       0.74609818      -2.16146291
H       -2.91165579      -0.69167522      -3.59853451
H       -3.09537667      -3.11264532      -3.14519931
H       -0.42653942      -2.67974180       0.21670408
H       -2.88448476      -4.91142105      -1.43579711
H       -1.79612968      -4.74711093      -0.07014211
H        3.20926068      -7.26505395      -3.04505419
H        3.04583992      -8.28502053      -5.29177802
H       -1.06805907      -7.01904346      -5.55594247
C        0.88095939      -8.31098811      -6.87768491
C        0.80005034      -8.80713146      -7.97392006
Br       0.66922726      -9.60935331      -9.74643957
C       -0.88202107       0.88202107       0.88202107
C       -1.55500376       1.96521905       0.32214265
C       -2.36687319       2.76393613       1.12654433
C       -2.49888183       2.48038192       2.48720626
C       -1.81337385       1.39854897       3.06052164
C       -1.00823323       0.59263181       2.24162848
C       -1.97430240       1.08174728       4.52942224
N       -3.07874897       0.16722531       4.77358425
N       -2.79222782      -1.16383248       4.65180535
N       -3.66802271      -2.04026176       4.80873929
C       -4.98563295      -1.66605370       5.09085160
C       -5.95397439      -2.66554817       5.24467715
C       -7.28440405      -2.33654479       5.52577807
C       -7.65252796      -0.99831674       5.65554712
C       -6.70463313       0.00905025       5.50716747
C       -5.37935573      -0.34353245       5.22534697
C       -4.33635950       0.66299155       5.05368701
O       -4.61488280       1.85382593       5.16396891
H       -1.45911751       2.19196121      -0.73651720
H       -2.90186686       3.60598338       0.69401527
H       -3.14676509       3.10609533       3.10036088
H       -0.48662313      -0.26242474       2.66537874
H       -2.12927001       2.01047718       5.09195572
H       -1.05299485       0.63562998       4.92475789
H       -5.66882023      -3.71071453       5.14274176
H       -8.02030827      -3.12899878       5.63964914
H       -6.98135988       1.05622084       5.60546427
C       -9.02165774      -0.65770384       5.94375973
C      -10.16830393      -0.37244054       6.18513779
Br     -12.02233383       0.08880609       6.57542570
C        0.88202107      -0.88202107       0.88202107
C        1.23316847      -2.15877633       0.45042066
C        2.04573023      -2.95922711       1.25239632
C        2.49961566      -2.48301843       2.48383591
C        2.13891430      -1.20274353       2.93078663
C        1.33108787      -0.39917762       2.11222803
C        2.64846954      -0.68211855       4.25488382
N        3.91778728       0.01459801       4.11636926
N        3.84147659       1.33599558       3.77471968
N        4.86604696       2.02808613       3.59853942
C        6.13093083       1.44507763       3.72457765
C        7.26488003       2.23633424       3.50455758
C        8.54955297       1.69411113       3.61819550
C        8.70496272       0.35043545       3.95523106
C        7.59051174      -0.45167925       4.17865985
C        6.31464227       0.11209990       4.05862788
C        5.10387720      -0.67365500       4.27550586
O        5.19381166      -1.86016635       4.57869963
H        0.88556733      -2.53659059      -0.50759640
H        2.33066745      -3.95370782       0.91749025
H        3.14413070      -3.11539470       3.09369590
H        1.05945344       0.60362092       2.43374461
H        2.75620035      -1.51422071       4.96128185
H        1.91657710       0.00349054       4.70029616
H        7.14565301       3.28517440       3.24036885
H        9.41624614       2.32661994       3.44133244
H        7.70052994      -1.50134018       4.44117487
C       10.02644210      -0.20970614       4.07156539
C       11.13318107      -0.67882472       4.16899539
Br      12.92268438      -1.43734979       4.32653146
