33
Properties=species:S:1:pos:R:3 pbc="F F F"
C        0.00000000       0.00000000       0.00000000
C        0.87296500       0.87296500      -0.87296500
N        0.67852693       2.16749027      -0.98778076
N        1.60436825       2.74429259      -1.84113091
C        2.44070918       1.84988131      -2.31799996
S        2.17997034       0.24977874      -1.77906413
C        3.50100742       2.19400529      -3.22956254
C        4.38900719       2.48220913      -3.99299620
Br       5.82482771       2.94821036      -5.22740387
C       -0.87296500      -0.87296500      -0.87296500
N       -0.53044098      -2.09702801      -1.20632897
N       -1.49099673      -2.69034748      -2.00844754
C       -2.49947104      -1.87784052      -2.23127888
S       -2.37193740      -0.34112262      -1.49575318
C       -3.63099871      -2.25585449      -3.03772205
C       -4.57865313      -2.57244119      -3.71311820
Br      -6.11093018      -3.08433510      -4.80517665
C       -0.87296500       0.87296500       0.87296500
N       -2.00722077       0.44585071       1.38072650
N       -2.62159485       1.42623799       2.14195891
C       -1.91347928       2.53303951       2.16207165
S       -0.45753571       2.48158796       1.26968953
C       -2.33469744       3.70526162       2.88461619
C       -2.68746766       4.68699763       3.48974723
Br      -3.25786725       6.27438172       4.46819295
C        0.87296500      -0.87296500       0.87296500
N        2.07348152      -0.50237449       1.25794196
N        2.67232263      -1.46951182       2.04795730
C        1.88718632      -2.51061086       2.21079326
S        0.37164065      -2.40831369       1.42885886
C        2.27653278      -3.65564642       2.99239604
C        2.60261045      -4.61461370       3.64698837
Br       3.12985044      -6.16518268       4.70540880
