141
Properties=species:S:1:pos:R:3 pbc="F F F"
C        0.00000000       0.00000000       0.00000000
C        0.88136769       0.88136769      -0.88136769
C        0.37765873       2.06584402      -1.39945172
C        1.18795251       2.87214382      -2.20531692
C        2.50731346       2.50738424      -2.50401827
N        3.35454757       3.30346940      -3.31450891
C        3.06417966       4.51468227      -3.93324727
O        1.98738583       5.09203895      -3.87006573
N        4.17392523       4.97583331      -4.63271761
C        4.29750496       6.16236553      -5.39820339
C        3.23957095       7.06557692      -5.56587719
C        3.39206289       8.22641177      -6.33081329
C        4.60934345       8.49627040      -6.93948603
C        5.67689349       7.61566520      -6.78869311
C        5.53678231       6.44456565      -6.01890306
C        6.72930865       5.53303965      -5.89693036
C        3.01420744       1.29763259      -1.97427879
C        4.41883947       0.82392559      -2.23954920
C        2.18871999       0.49513982      -1.16302688
H       -0.64120827       2.37959787      -1.18785299
H        0.74670448       3.78851647      -2.58445192
H        4.28143533       2.94481503      -3.46383023
H        4.99543184       4.39905591      -4.58356620
H        2.26727389       6.89989504      -5.11309375
H        2.55021596       8.90509884      -6.44000197
H        6.62562616       7.83939583      -7.27205334
H        7.00620399       5.40624022      -4.84536233
H        7.60457768       5.93866281      -6.41586873
H        6.50692607       4.55724560      -6.34055151
H        4.61960707      -0.13942520      -1.75855883
H        5.14272826       1.54422324      -1.84513685
H        4.57867312       0.69047490      -3.31432361
H        2.57085945      -0.43591350      -0.74986071
C        4.76860105       9.68960361      -7.72954481
C        4.90197928      10.68902017      -8.39121903
Br       5.11764061      12.30499223      -9.46109028
C       -0.88136769      -0.88136769      -0.88136769
C       -0.36454265      -2.04435916      -1.43405265
C       -1.17482573      -2.85075067      -2.23983685
C       -2.50724364      -2.50745120      -2.50402112
N       -3.35475510      -3.30430491      -3.31346587
C       -3.05272626      -4.49640253      -3.96298042
O       -1.96333849      -5.05245503      -3.93369700
N       -4.16714354      -4.96616793      -4.64916468
C       -4.28243458      -6.13920201      -5.43643728
C       -3.21006484      -7.01666993      -5.64429030
C       -3.35476689      -8.16462863      -6.42989243
C       -4.57867846      -8.44725970      -7.01916171
C       -5.66055092      -7.59224481      -6.82845607
C       -5.52833235      -6.43438133      -6.03753734
C       -6.73635501      -5.55046622      -5.87245742
C       -3.02752432      -1.31949812      -1.93909638
C       -4.44669841      -0.86974632      -2.16586953
C       -2.20186481      -0.51670624      -1.12831564
H        0.66466372      -2.34113936      -1.24976695
H       -0.72300224      -3.74987252      -2.64679811
H       -4.29164151      -2.96200051      -3.43643857
H       -4.99900898      -4.40768056      -4.57136440
H       -2.23215045      -6.84008625      -5.20802598
H       -2.50174381      -8.82334005      -6.57023291
H       -6.61436528      -7.82574214      -7.29696792
H       -6.99388975      -5.45084396      -4.81307284
H       -7.61377727      -5.96353156      -6.38180038
H       -6.54310929      -4.56145073      -6.30016316
H       -4.65698435       0.07925348      -1.66100983
H       -5.14745392      -1.61277981      -1.77185462
H       -4.63148062      -0.71781927      -3.23417174
H       -2.59419692       0.39762482      -0.68823456
C       -4.73000398      -9.62733272      -7.83041276
C       -4.85673910     -10.61564387      -8.50983551
Br      -5.06165907     -12.21365942      -9.60840464
C       -0.88136769       0.88136769       0.88136769
C       -2.12430471       0.42386320       1.29478656
C       -2.92897522       1.23286928       2.10356875
C       -2.50491206       2.50535957       2.50844434
N       -3.29493729       3.34780421       3.32978437
C       -4.55833994       3.09868456       3.85508471
O       -5.20218564       2.07444039       3.67286448
N       -4.98390425       4.18030410       4.61826780
C       -6.20616504       4.33212195       5.31978688
C       -7.20590741       3.35048131       5.31463635
C       -8.40324204       3.53182088       6.01422503
C       -8.61421892       4.70256420       6.72831676
C       -7.63708956       5.69382626       6.75033598
C       -6.42609036       5.52218035       6.05198030
C       -5.41130893       6.63309865       6.11487107
C       -1.23748261       2.96666783       2.08196837
C       -0.69689449       4.31844030       2.46697946
C       -0.43602169       2.14199592       1.26886908
H       -2.48471385      -0.55812975       0.99965849
H       -3.89137384       0.82799791       2.40030111
H       -2.89215267       4.23981358       3.55811433
H       -4.34066758       4.94928455       4.68810182
H       -7.09136272       2.41860058       4.77029938
H       -9.15735487       2.74958678       5.98837512
H       -7.81602609       6.60715586       7.31389338
H       -4.46682165       6.26373348       6.52725142
H       -5.74723823       7.45328504       6.75858594
H       -5.24122386       7.04750905       5.11599028
H        0.28983833       4.50072789       2.02785113
H       -0.58963289       4.38826672       3.55418874
H       -1.36317248       5.11034039       2.10995875
H        0.54086320       2.48791234       0.93775753
C       -9.84700544       4.89300376       7.44774026
C      -10.87946415       5.05249689       8.05025744
Br     -12.54886256       5.31038379       9.02447677
C        0.88136769      -0.88136769       0.88136769
C        2.14229847      -0.44213405       1.25852195
C        2.94696613      -1.25105143       2.06739569
C        2.50497873      -2.50528486       2.50845238
N        3.29457303      -3.34704512       3.33090773
C        4.57397540      -3.11418256       3.82395124
O        5.23520684      -2.10812172       3.60616196
N        4.99297624      -4.18838215       4.60111775
C        6.22659545      -4.35167113       5.27980729
C        7.24647862      -3.39212840       5.23241805
C        8.45451868      -3.58442928       5.91033999
C        8.65609190      -4.74412360       6.64488438
C        7.65897200      -5.71341484       6.70886497
C        6.43709567      -5.53048275       6.03267259
C        5.40069755      -6.61770234       6.14087877
C        1.21920507      -2.94806819       2.11884556
C        0.65864531      -4.27945583       2.54421312
C        0.41798297      -2.12365233       1.30525140
H        2.51689801       0.52542076       0.93476534
H        3.92386145      -0.86084317       2.33496825
H        2.87807597      -4.22515317       3.58685145
H        4.33531627      -4.94167912       4.70105856
H        7.13991321      -2.46968524       4.67066423
H        9.22423175      -2.81934610       5.85173891
H        7.83070545      -6.61829741       7.28807248
H        4.47331717      -6.21945430       6.56503507
H        5.73304437      -7.43117619       6.79488866
H        5.20042408      -7.04932929       5.15496982
H       -0.34094644      -4.44966082       2.13002631
H        0.57338723      -4.32400594       3.63469519
H        1.30022299      -5.09288393       2.19036470
H       -0.57288927      -2.45534548       1.00235046
C        9.89980318      -4.94586588       7.34208040
C       10.94141138      -5.11482503       7.92598207
Br      12.62560375      -5.38801769       8.87010168
