133
Properties=species:S:1:pos:R:3 pbc="F F F"
C        0.00000000       0.00000000       0.00000000
C        0.88136769       0.88136769      -0.88136769
C        0.37765873       2.06584402      -1.39945172
C        1.18795251       2.87214382      -2.20531692
C        2.50731346       2.50738424      -2.50401827
N        3.35454757       3.30346940      -3.31450891
C        3.06417966       4.51468227      -3.93324727
O        1.98738583       5.09203895      -3.87006573
N        4.17392523       4.97583331      -4.63271761
C        4.29750496       6.16236553      -5.39820339
C        3.23957095       7.06557692      -5.56587719
C        3.39206289       8.22641177      -6.33081329
C        4.60934345       8.49627040      -6.93948603
Br       4.81831715      10.06213136      -7.97618071
C        5.67689349       7.61566520      -6.78869311
C        5.53678231       6.44456565      -6.01890306
C        6.72930865       5.53303965      -5.89693036
C        3.01420744       1.29763259      -1.97427879
C        4.41883947       0.82392559      -2.23954920
C        2.18871999       0.49513982      -1.16302688
H       -0.64120827       2.37959787      -1.18785299
H        0.74670448       3.78851647      -2.58445192
H        4.28143533       2.94481503      -3.46383023
H        4.99543184       4.39905591      -4.58356620
H        2.26727389       6.89989504      -5.11309375
H        2.55021596       8.90509884      -6.44000197
H        6.62562616       7.83939583      -7.27205334
H        7.00620399       5.40624022      -4.84536233
H        7.60457768       5.93866281      -6.41586873
H        6.50692607       4.55724560      -6.34055151
H        4.61960707      -0.13942520      -1.75855883
H        5.14272826       1.54422324      -1.84513685
H        4.57867312       0.69047490      -3.31432361
H        2.57085945      -0.43591350      -0.74986071
C       -0.88136769      -0.88136769      -0.88136769
C       -0.37980278      -2.06909829      -1.39405339
C       -1.19009792      -2.87538395      -2.19993139
C       -2.50732421      -2.50737369      -2.50401807
N       -3.35451182      -3.30334172      -3.31467234
C       -3.06605015      -4.51744998      -3.92860907
O       -1.99131752      -5.09803509      -3.86013791
N       -4.17502848      -4.97729405      -4.63015361
C       -4.29996285      -6.16587063      -5.39224039
C       -3.24439638      -7.07298606      -5.55364262
C       -3.39816214      -8.23577150      -6.31535431
C       -4.61435168      -8.50369120      -6.92705700
Br      -4.82502809     -10.07218844      -7.95941268
C       -5.67955260      -7.61920509      -6.78249411
C       -5.53815010      -6.44610000      -6.01600092
C       -6.72813506      -5.53038681      -5.90075678
C       -3.01203036      -1.29432055      -1.97976790
C       -4.41428473      -0.81698479      -2.25104473
C       -2.18657111      -0.49187312      -1.16844246
H        0.63737392      -2.38542319      -1.17819332
H       -0.75057836      -3.79436939      -2.57472512
H       -4.27976522      -2.94221092      -3.46810444
H       -4.99483687      -4.39774332      -4.58547376
H       -2.27302385      -6.90895929      -5.09827955
H       -2.55814831      -8.91748800      -6.41968046
H       -6.62744925      -7.84145313      -7.26817296
H       -7.00797769      -5.39933811      -4.85049074
H       -7.60303764      -5.93487390      -6.42119768
H       -6.50121469      -4.55673284      -6.34677566
H       -4.61350097       0.14853692      -1.77377664
H       -5.14173111      -1.53370197      -1.85665527
H       -4.57025931      -0.68646651      -3.32674581
H       -2.56704430       0.44171314      -0.75947551
C       -0.88136769       0.88136769       0.88136769
C       -2.13777203       0.43731425       1.26786818
C       -2.94244006       1.24625469       2.07671851
C       -2.50496138       2.50530399       2.50845060
N       -3.29466308       3.34724380       3.33061900
C       -4.57004067       3.11009271       3.83197583
O       -5.22690078       2.09923729       3.62335245
N       -4.99068950       4.18624663       4.60554002
C       -6.22145118       4.34650931       5.29011339
C       -7.23627453       3.38114383       5.25360671
C       -8.44162195       3.57055351       5.93711249
C       -8.64555459       4.73315650       6.66638879
Br     -10.27391537       4.99396619       7.58874765
C       -7.65345660       5.70823686       6.71955834
C       -6.43431550       5.52828106       6.03765446
C       -5.40334805       6.62174527       6.13418533
C       -1.22380273       2.95297456       2.10934153
C       -0.66826652       4.28973923       2.52430850
C       -0.42252061       2.12849120       1.29587488
H       -2.50880201      -0.53404918       0.95148976
H       -3.91568841       0.85217811       2.35180635
H       -2.88161555       4.22901907       3.57944597
H       -4.33665356       4.94367669       4.69772370
H       -7.12770733       2.45621643       4.69633892
H       -9.20741603       2.80095124       5.88694950
H       -7.82699741       6.61534318       7.29473475
H       -4.47147561       6.23093060       6.55540033
H       -5.73658352       7.43697752       6.78554818
H       -5.21086397       7.04902289       5.14483633
H        0.32808651       4.46313549       2.10369171
H       -0.57727904       4.34076582       3.61404349
H       -1.31624789       5.09767559       2.16954815
H        0.56483312       2.46393633       0.98570345
C        0.88136769      -0.88136769       0.88136769
C        2.15395233      -0.45531731       1.23368483
C        2.95862025      -1.26417277       2.04262023
C        2.50502542      -2.50523440       2.50845614
N        3.29434670      -3.34650684       3.33167234
C        4.58411120      -3.12537426       3.80262375
O        5.25658965      -2.13242066       3.56048020
N        4.99887974      -4.19423833       4.58935808
C        6.23985688      -4.36580576       5.25241122
C        7.27274391      -3.42216774       5.17611341
C        8.48771522      -3.62237551       5.83919722
C        8.68323499      -4.77413387       6.58773101
Br      10.32447833      -5.04954953       7.48260135
C        7.67320918      -5.72761270       6.68042991
C        6.44429411      -5.53654298       6.01941392
C        5.39393878      -6.60670528       6.15863460
C        1.20736842      -2.93464868       2.14410172
C        0.63387640      -4.25133029       2.59710757
C        0.40630065      -2.11041724       1.33016880
H        2.53774173       0.50182043       0.89032129
H        3.94490592      -0.88454599       2.29022096
H        2.86896807      -4.21458390       3.60652862
H        4.33190392      -4.93624413       4.70990591
H        7.17131348      -2.50650185       4.60244735
H        9.26749969      -2.86963573       5.75818135
H        7.84030538      -6.62642784       7.27034212
H        4.47877693      -6.18873870       6.59029091
H        5.72404110      -7.41541029       6.81965782
H        5.17293460      -7.04959378       5.18219481
H       -0.37406757      -4.41279350       2.20001477
H        0.56404182      -4.27879726       3.68924927
H        1.25830886      -5.07916144       2.24600133
H       -0.59363014      -2.43184814       1.04658867
