110
Properties=species:S:1:pos:R:3 pbc="F F F"
N        3.83530930      -2.93592920       0.43445117
C        4.50312207      -2.00314535       0.26551112
C        5.31673083      -0.80082214       0.10264401
C        4.82155742       0.00630450      -1.07325583
O        5.29174763      -0.14994552      -2.19668381
N        3.78425526       0.87412931      -0.75357283
C        3.20315904       1.76090208      -1.70168914
C        1.79999169       1.79999169      -1.79999169
C        1.16009280       2.62926005      -2.72748348
C        1.90926832       3.45491690      -3.56960248
C        1.22539145       4.36953815      -4.54272570
C        3.30156485       3.47517802      -3.43206903
C        3.94731774       2.64498499      -2.50282675
Br       5.81145584       2.96268387      -2.25997067
H        6.36748550      -1.05641396      -0.07055027
H        5.28453278      -0.18356145       1.00720050
H        3.13097098       0.51865902      -0.05994314
H        0.07404797       2.63075034      -2.79917290
H        1.87915171       4.60014317      -5.39041387
H        0.94867036       5.30468509      -4.04622687
H        0.32234610       3.90054574      -4.94731621
H        3.88780166       4.16274797      -4.04005954
N        3.35366290      -0.33129894      -3.48729289
C        2.48292940      -0.47862442      -4.23877059
C        1.36208637      -0.60876575      -5.16658530
C        0.37456928      -1.62673336      -4.64895366
O        0.44606436      -2.80786021      -4.97669007
N       -0.55384537      -1.09766746      -3.76044457
C       -1.60223247      -1.87221555      -3.19130223
C       -1.79999169      -1.79999169      -1.79999169
C       -2.79535248      -2.55329998      -1.16818386
C       -3.63099170      -3.38620911      -1.91658689
C       -4.72063257      -4.17042195      -1.24660077
C       -3.48836411      -3.41217167      -3.30827612
C       -2.49126844      -2.65792123      -3.94593981
Br      -2.58032118      -2.60414250      -5.84964671
H        1.70460476      -0.93036775      -6.15585882
H        0.85566435       0.35316311      -5.30259829
H       -0.18989119      -0.37321910      -3.14646285
H       -2.91949544      -2.49608344      -0.08839233
H       -4.97937306      -5.06018658      -1.83014911
H       -5.61471105      -3.54921268      -1.13565859
H       -4.40013362      -4.51296118      -0.25711324
H       -4.17722428      -4.00923102      -3.90415388
N       -1.60597604      -3.75547820       2.61443110
C       -2.57170751      -3.14273009       2.80548818
C       -3.79670589      -2.36701784       2.98357663
C       -3.46143022      -0.95291911       3.39260663
O       -3.39375014      -0.63075391       4.57548969
N       -3.20438711      -0.11025395       2.31782425
C       -2.91560750       1.27332498       2.47681778
C       -1.79999169       1.79999169       1.79999169
C       -1.44101785       3.14597617       1.92984231
C       -2.20122734       4.00453243       2.72802793
C       -1.83830700       5.45578305       2.84356524
C       -3.35207199       3.50730927       3.34943063
C       -3.71572154       2.15781901       3.22158892
Br      -5.42878717       1.68991100       3.91541222
H       -4.43438904      -2.80917421       3.75640699
H       -4.38386917      -2.34891474       2.05881640
H       -2.72132744      -0.55030088       1.53854658
H       -0.56371870       3.52863302       1.41161949
H       -2.20698481       5.87878527       3.78393868
H       -2.27185649       6.01737088       2.01035494
H       -0.75107389       5.58598994       2.83314421
H       -3.98500397       4.18486135       3.92074386
N       -0.77964326      -3.94912408      -2.70455189
C       -0.59543751      -4.57742481      -1.74752170
C       -0.41038958      -5.33733895      -0.51368469
C        0.82965730      -4.86501627       0.20644417
O        1.91838316      -5.40091978       0.01918298
N        0.60837275      -3.77022789       1.03335677
C        1.62972663      -3.19623524       1.83978839
C        1.79999169      -1.79999169       1.79999169
C        2.80068864      -1.16914128       2.54700641
C        3.64658858      -1.91938529       3.36781384
C        4.69948887      -1.24280717       4.19535926
C        3.44086418      -3.29975367       3.46819404
C        2.43807995      -3.93639672       2.72065281
Br       2.11937506      -5.76694365       3.14779168
H       -0.30364972      -6.40721850      -0.72194695
H       -1.27845385      -5.22674131       0.14548337
H       -0.06947250      -3.09992776       0.67911787
H        2.92657402      -0.08966237       2.48773482
H        5.52438884      -1.92793597       4.41738394
H        4.26736706      -0.89391782       5.13829744
H        5.12347812      -0.38689588       3.65983405
H        4.05413181      -3.88206860       4.15440877
C       -0.00445707       0.01189536      -1.78238275
H       -0.66409135       0.67374010      -2.43557963
H        0.65740317      -0.63156657      -2.45157240
C       -0.90989263      -0.90692880      -0.91072765
C        0.90977584       0.90977584      -0.90977584
C       -0.00465871       1.77757030       0.00794375
H       -0.66225468       2.44313916      -0.64384735
H        0.64322798       2.43503045       0.67728295
C       -1.78241447       0.00034974      -0.00472694
H       -2.45427497      -0.65498947       0.64260836
H       -2.43311707       0.67328779      -0.65473579
C       -0.91132561       0.90220522       0.91563759
C       -0.01476271      -0.02253852       1.78660255
H       -0.67934791      -0.69751639       2.42135241
H        0.63392994       0.61504881       2.47327442
C        0.01484550      -1.77751727      -0.01636693
H        0.67870853      -2.42144646      -0.68295456
H       -0.62264859      -2.45592969       0.64226336
C        1.78714474       0.01002794       0.00389507
H        2.44202412       0.67113390       0.66197326
H        2.45385902      -0.65136977      -0.64189061
C        0.91606151      -0.90478549       0.90901405
