154
Properties=species:S:1:pos:R:3 pbc="F F F"
O        6.51071098       5.44150181       1.03615840
C        6.05163124       5.13117404      -0.06128876
C        4.71596324       4.41241677      -0.22472204
O        4.24348174       4.55243664      -1.56381241
C        3.40604565       3.56979758      -2.01214229
C        3.38488517       3.40070291      -3.39898540
C        2.58544534       2.41573815      -3.98015642
C        1.79049140       1.60368138      -3.17373434
C        1.79255589       1.79255589      -1.79255589
C        2.59072908       2.77636540      -1.20498633
N        6.73601369       5.31124044      -1.24805301
N        7.93183575       6.02442956      -1.22847472
C        8.29121661       6.74667800      -2.34564746
O        7.59380620       6.80189417      -3.35661128
C        9.57301578       7.49132539      -2.27501099
C        9.77162348       8.57269218      -3.14473805
C       10.96770725       9.29615687      -3.10698110
C       11.97109290       8.92960681      -2.20966894
Br      13.58897069       9.90504662      -2.16190264
C       11.79086028       7.84985690      -1.35031479
C       10.59333657       7.14059457      -1.38670205
F       10.44949546       6.10400107      -0.54702258
H        3.99319209       4.86509357       0.46202617
H        4.89975516       3.36336513       0.03669573
H        4.00456685       4.03221635      -4.03181948
H        2.58596217       2.28280013      -5.05887337
H        1.17197724       0.83493106      -3.62971553
H        2.55645182       2.91458520      -0.12963976
H        6.22677125       5.28885985      -2.13384475
H        8.46400805       6.01305276      -0.35788343
H        8.99187766       8.85906920      -3.84938865
H       11.10485873      10.13903518      -3.78063586
H       12.56660742       7.54733110      -0.65185539
O        0.07870482      -2.98497396      -8.00978524
C       -0.78456668      -3.27546804      -7.18405931
C       -0.96468293      -2.51390747      -5.87451165
O       -2.25591987      -2.77670436      -5.32710657
C       -2.37371586      -2.64211236      -3.97215730
C       -3.40426402      -3.38715963      -3.39314983
C       -3.61537639      -3.35165016      -2.01431336
C       -2.80249388      -2.55616883      -1.20924440
C       -1.79255589      -1.79255589      -1.79255589
C       -1.57612482      -1.82413955      -3.17181643
N       -1.61329330      -4.37414755      -7.30786629
N       -1.58915347      -5.09904014      -8.49654641
C       -2.74085103      -5.73270867      -8.90998237
O       -3.79618961      -5.67407302      -8.28204902
C       -2.66508634      -6.49051347     -10.18375235
C       -3.85248203      -6.75684146     -10.87973023
C       -3.81896008      -7.46944046     -12.08244468
C       -2.59992012      -7.92834374     -12.58210477
Br      -2.55561167      -8.89491182     -14.20539647
C       -1.41592234      -7.68152836     -11.89358127
C       -1.45605994      -6.96264382     -10.70192943
F       -0.29852833      -6.74155995     -10.06043082
H       -0.87186917      -1.44273337      -6.08165695
H       -0.16153798      -2.85475915      -5.21012743
H       -4.04052723      -4.00987498      -4.01820048
H       -4.41093927      -3.94519734      -1.57149907
H       -2.96747761      -2.53402740      -0.13511881
H       -0.79649730      -1.20363635      -3.60054314
H       -2.47000468      -4.42637813      -6.75309305
H       -0.72019378      -5.08347719      -9.03127327
H       -4.80646998      -6.40349645     -10.49036909
H       -4.74658221      -7.66071753     -12.61723002
H       -0.45988108      -8.03987743     -12.26603541
O       -5.99734879       5.99544519      -1.07673959
C       -5.64935883       5.57127801       0.02345721
C       -4.38629989       4.74017338       0.22662877
O       -4.01121633       4.74518873       1.60332574
C       -3.28500572       3.67004547       2.03293433
C       -3.38484111       3.39958894       3.40014344
C       -2.70698081       2.31546568       3.95889342
C       -1.91237033       1.50433916       3.15119763
C       -1.79255589       1.79255589       1.79255589
C       -2.46873959       2.87589579       1.22744542
N       -6.40969007       5.71775949       1.16785758
N       -7.54537170       6.52193431       1.11743402
C       -7.93775263       7.18709976       2.25868968
O       -7.31948726       7.11400146       3.31882293
C       -9.15263803       8.03299199       2.15372214
C       -9.33971954       9.06059514       3.08873904
C      -10.47349193       9.87632688       3.02102642
C      -11.42748292       9.65558133       2.02730440
Br     -12.96156313      10.75560385       1.93875298
C      -11.25936635       8.63027176       1.10139387
C      -10.12302402       7.82864785       1.16896132
F       -9.98949884       6.84766949       0.26335078
H       -3.58102331       5.18351515      -0.36827897
H       -4.62472121       3.73048796      -0.12878461
H       -4.00469385       4.03008000       4.03382883
H       -2.80161636       2.10502359       5.02099572
H       -1.38890294       0.65844964       3.58927124
H       -2.34041715       3.08870111       0.17155853
H       -5.97434777       5.59132932       2.08379876
H       -8.00715354       6.61549226       0.21229844
H       -8.59882277       9.23312407       3.86838868
H      -10.60142662      10.67622548       3.74687766
H      -11.99794436       8.44092383       0.32692573
O       -0.35933998      -3.47245594       7.80293843
C        0.56665923      -3.66091613       7.01651868
C        0.77519952      -2.81093048       5.76697204
O        2.10976763      -2.96410683       5.28585633
C        2.29748541      -2.73965808       3.95084202
C        3.40385495      -3.38653609       3.39418245
C        3.69204681      -3.25392611       2.03536700
C        2.87978322      -2.45886385       1.22926005
C        1.79255589      -1.79255589       1.79255589
C        1.49879788      -1.92158897       3.15169396
N        1.45293511      -4.71518360       7.12718843
N        1.40456652      -5.51213139       8.26804211
C        2.56718649      -6.10216170       8.71419388
O        3.65156746      -5.94378774       8.15695645
C        2.46446818      -6.94014372       9.93474026
C        3.62362125      -7.17949285      10.68593963
C        3.56433205      -7.96560060      11.84091257
C        2.34894995      -8.52440109      12.23701761
Br       2.27015494      -9.59011173      13.79565329
C        1.19395247      -8.30475672      11.49232278
C        1.25880415      -7.51268378      10.34914526
F        0.12903438      -7.32004058       9.65144415
H        0.60468191      -1.76175436       6.02982322
H        0.03450363      -3.15622713       5.03569379
H        4.03993399      -4.00860905       4.02005964
H        4.54703345      -3.77187941       1.60872281
H        3.10515088      -2.36102998       0.17044297
H        0.65884577      -1.37498335       3.56684768
H        2.34198827      -4.68331467       6.62417292
H        0.50673223      -5.58001177       8.74820024
H        4.57500658      -6.74805249      10.37727645
H        4.46937419      -8.13531108      12.41984449
H        0.24181084      -8.74026039      11.78372268
C       -0.00445707       0.01189536      -1.78238275
H       -0.66409135       0.67374010      -2.43557963
H        0.65740317      -0.63156657      -2.45157240
C       -0.90989263      -0.90692880      -0.91072765
C        0.90977584       0.90977584      -0.90977584
C       -0.00465871       1.77757030       0.00794375
H       -0.66225468       2.44313916      -0.64384735
H        0.64322798       2.43503045       0.67728295
C       -1.78241447       0.00034974      -0.00472694
H       -2.45427497      -0.65498947       0.64260836
H       -2.43311707       0.67328779      -0.65473579
C       -0.91132561       0.90220522       0.91563759
C       -0.01476271      -0.02253852       1.78660255
H       -0.67934791      -0.69751639       2.42135241
H        0.63392994       0.61504881       2.47327442
C        0.01484550      -1.77751727      -0.01636693
H        0.67870853      -2.42144646      -0.68295456
H       -0.62264859      -2.45592969       0.64226336
C        1.78714474       0.01002794       0.00389507
H        2.44202412       0.67113390       0.66197326
H        2.45385902      -0.65136977      -0.64189061
C        0.91606151      -0.90478549       0.90901405
