198
Properties=species:S:1:pos:R:3 pbc="F F F"
C        1.79142062       1.79142062      -1.79142062
C        3.14655896       1.49499430      -1.93008864
C        3.95707399       2.29652454      -2.74125387
C        3.40624373       3.38728707      -3.42476996
C        2.04535925       3.68617162      -3.26184634
C        1.23738079       2.88748966      -2.44807628
C        4.21593183       4.26159794      -4.32338302
O        3.81932001       5.40113356      -4.56270259
C        5.50983034       3.73118633      -4.91411277
C        5.61149040       4.12231458      -6.39664923
H        5.50536484       5.20907913      -6.49767434
S        7.27028258       3.67605452      -7.09704331
C        8.34653899       4.71737037      -6.10943361
C        8.25272473       6.11172361      -6.20645534
C        9.08984892       6.92727257      -5.44390785
C       10.01781072       6.35455753      -4.57816562
C       10.12241813       4.96549353      -4.48380942
C        9.32746872       4.13383099      -5.28070700
N        9.36932508       2.73802159      -5.06656705
C        4.53380046       3.44885198      -7.24633798
C        4.37746697       2.05049753      -7.27871540
C        3.39507523       1.45688676      -8.07352183
C        2.55400028       2.24964653      -8.85093910
C        2.69778639       3.63470809      -8.82717938
C        3.67522028       4.23572340      -8.03197602
H        3.58259652       0.64648464      -1.40894496
H        5.01435261       2.05627168      -2.80775048
H        1.60648999       4.54105046      -3.77470323
H        0.18390143       3.12999633      -2.33693833
H        5.57863673       2.64701397      -4.80511166
H        6.31437513       4.17648211      -4.31953276
H        7.53116797       6.57539450      -6.87465642
H        9.00944638       8.00901504      -5.51902193
H       10.65667697       6.98862045      -3.96869079
H       10.83304447       4.53520093      -3.78332950
H        8.98755718       2.24371000      -5.87354644
H       10.29623208       2.40420230      -4.82137663
H        5.03535332       1.40553395      -6.69888744
H        3.29326235       0.37483406      -8.09349337
H        1.79708728       1.77982290      -9.47387306
H        3.77083508       5.31890052      -8.02407647
C        1.83221695       4.45381526      -9.63554377
C        1.10730255       5.13981752     -10.31254895
Br      -0.06482274       6.24902514     -11.40720906
C       -1.79142062      -1.79142062      -1.79142062
C       -1.20216402      -2.69566416      -2.67381371
C       -2.00586017      -3.50951423      -3.47947800
C       -3.40072896      -3.42694131      -3.39063048
C       -3.98120013      -2.49963884      -2.51253823
C       -3.17762969      -1.68413319      -1.71118384
C       -4.30787158      -4.28718316      -4.20585804
O       -5.46349035      -3.91533587      -4.40432993
C       -3.78528262      -5.59312684      -4.77671998
C       -4.83164330      -6.70370200      -4.59510891
H       -5.78262861      -6.38850600      -5.04098369
S       -4.31837258      -8.25931236      -5.46569549
C       -4.29938781      -7.70293697      -7.17101817
C       -5.48939473      -7.29447391      -7.78703503
C       -5.48199922      -6.86444303      -9.11458708
C       -4.28718677      -6.83451044      -9.82883667
C       -3.09938636      -7.24901989      -9.22331484
C       -3.09849105      -7.73327091      -7.91024475
N       -1.86304356      -8.02204966      -7.28882051
C       -5.07269079      -7.03415823      -3.12214142
C       -4.02485700      -7.41755014      -2.26427276
C       -4.27122953      -7.72854958      -0.92570470
C       -5.56835270      -7.66408431      -0.42214889
C       -6.61399183      -7.28523388      -1.26044815
C       -6.37486528      -6.96903244      -2.59902200
H       -0.12018826      -2.77221483      -2.74562304
H       -1.51740721      -4.18461881      -4.17634875
H       -5.06485011      -2.41302726      -2.44436631
H       -3.64359806      -0.97473613      -1.03250191
H       -2.84393817      -5.88185705      -4.30496714
H       -3.58011796      -5.39610436      -5.83416768
H       -6.43048212      -7.30803450      -7.24270226
H       -6.40751854      -6.54349090      -9.58647391
H       -4.27659536      -6.48074954     -10.85664330
H       -2.17161314      -7.19363452      -9.78632723
H       -2.00646099      -8.62224542      -6.47610721
H       -1.17975435      -8.41084917      -7.93120751
H       -3.00506485      -7.49828222      -2.63642764
H       -3.45177543      -8.03108129      -0.27873306
H       -5.75371350      -7.91601249       0.61894275
H       -7.20340181      -6.67255625      -3.23785401
C       -7.95578312      -7.22448402      -0.74130885
C       -9.07953331      -7.17360602      -0.30652968
Br     -10.89654234      -7.09134059       0.39647146
C       -1.79142062       1.79142062       1.79142062
C       -2.93424111       1.25479869       2.38260210
C       -3.74198417       2.05714752       3.19572071
C       -3.39657891       3.39403043       3.42769141
C       -2.25452921       3.92712422       2.81172377
C       -1.45055767       3.12609843       1.99629062
C       -4.20538066       4.28982438       4.30570776
O       -4.11648961       5.50786874       4.15879780
C       -5.12225284       3.68139874       5.35147786
C       -5.00135384       4.45607248       6.67302788
H       -5.19796568       5.51997246       6.49418016
S       -6.25780676       3.87680186       7.90877180
C       -7.78299593       4.31705036       7.07329666
C       -8.08189300       5.66311456       6.82589612
C       -9.26858850       6.01240005       6.18004078
C      -10.15677242       5.02014180       5.77361966
C       -9.86886721       3.67737517       6.02547870
C       -8.70904269       3.31376511       6.71919890
N       -8.38745162       1.94365827       6.84280384
C       -3.61308166       4.31793535       7.29797342
C       -3.05157637       3.06163903       7.59346451
C       -1.78749637       2.96051868       8.17746877
C       -1.06411657       4.11227260       8.47819673
C       -1.60814787       5.36151723       8.19000876
C       -2.86987033       5.47051110       7.60253828
H       -3.20759902       0.21624240       2.21418471
H       -4.64026151       1.61793077       3.62018249
H       -1.98224370       4.96981095       2.97018903
H       -0.56640431       3.55351219       1.53091959
H       -4.89346461       2.62587974       5.51141801
H       -6.13301126       3.74269383       4.93468491
H       -7.39773740       6.45027231       7.13320918
H       -9.49342001       7.05832976       5.98573357
H      -11.07195356       5.28950346       5.25253119
H      -10.55979845       2.91425378       5.67752266
H       -7.70831232       1.80482973       7.59167157
H       -9.20645721       1.35528082       6.96007299
H       -3.60384145       2.14587615       7.39005711
H       -1.37195037       1.98264279       8.40699662
H       -0.08417793       4.02585984       8.94074547
H       -3.27729492       6.45434172       7.38217544
C       -0.86280652       6.55227444       8.50649504
C       -0.23858313       7.54953359       8.77155229
Br       0.77073328       9.16201730       9.20012745
C        1.79142062      -1.79142062       1.79142062
C        1.20682926      -2.59862316       2.76618947
C        2.01002765      -3.41231011       3.57251465
C        3.39844396      -3.42745817       3.39239862
C        3.97599399      -2.59644642       2.42093679
C        3.17330704      -1.78085262       1.61878706
C        4.30242935      -4.29357136       4.20491208
O        5.48937693      -3.98711172       4.30666751
C        3.73888771      -5.52447425       4.89176748
C        4.70038216      -6.71066582       4.71940622
H        5.69633093      -6.43185721       5.08393015
S        4.15043899      -8.17230816       5.72063327
C        4.27825737      -7.51158089       7.38350470
C        5.52922279      -7.14511967       7.89656121
C        5.63588860      -6.63432718       9.19081356
C        4.49486407      -6.48166823       9.97400159
C        3.24641391      -6.85364797       9.47165919
C        3.12909488      -7.41699791       8.19591392
N        1.83991392      -7.66160456       7.67239524
C        4.82298629      -7.14666909       3.25933505
C        3.69922895      -7.51247247       2.49497848
C        3.83719281      -7.92114448       1.16714652
C        5.09982332      -7.97351241       0.58125017
C        6.21982512      -7.61329659       1.32655215
C        6.08939944      -7.19992085       2.65359942
H        0.12927667      -2.59914355       2.90960590
H        1.52776473      -4.00941502       4.34119503
H        5.05607527      -2.58579177       2.28037663
H        3.63649456      -1.14699021       0.86735133
H        2.75247092      -5.77915945       4.49913199
H        3.61640032      -5.24939908       5.94459060
H        6.42976510      -7.25425872       7.29719507
H        6.60854482      -6.34650093       9.58243759
H        4.57388704      -6.06514531      10.97495586
H        2.36294641      -6.70257799      10.08605049
H        1.89211658      -8.31901450       6.89368254
H        1.17771317      -7.96410561       8.37999225
H        2.70313406      -7.50269485       2.93394580
H        2.95977198      -8.20843198       0.59338583
H        5.20027260      -8.30095351      -0.45044286
H        6.97495517      -6.91976544       3.21909147
C        7.52568494      -7.67327040       0.72262064
C        8.61934254      -7.72349847       0.21682800
Br      10.38769438      -7.80471301      -0.60099592
C       -0.00445707       0.01189536      -1.78238275
H       -0.66409135       0.67374010      -2.43557963
H        0.65740317      -0.63156657      -2.45157240
C       -0.90989263      -0.90692880      -0.91072765
C        0.90977584       0.90977584      -0.90977584
C       -0.00465871       1.77757030       0.00794375
H       -0.66225468       2.44313916      -0.64384735
H        0.64322798       2.43503045       0.67728295
C       -1.78241447       0.00034974      -0.00472694
H       -2.45427497      -0.65498947       0.64260836
H       -2.43311707       0.67328779      -0.65473579
C       -0.91132561       0.90220522       0.91563759
C       -0.01476271      -0.02253852       1.78660255
H       -0.67934791      -0.69751639       2.42135241
H        0.63392994       0.61504881       2.47327442
C        0.01484550      -1.77751727      -0.01636693
H        0.67870853      -2.42144646      -0.68295456
H       -0.62264859      -2.45592969       0.64226336
C        1.78714474       0.01002794       0.00389507
H        2.44202412       0.67113390       0.66197326
H        2.45385902      -0.65136977      -0.64189061
C        0.91606151      -0.90478549       0.90901405
