190
Properties=species:S:1:pos:R:3 pbc="F F F"
C        1.79142062       1.79142062      -1.79142062
C        3.14655896       1.49499430      -1.93008864
C        3.95707399       2.29652454      -2.74125387
C        3.40624373       3.38728707      -3.42476996
C        2.04535925       3.68617162      -3.26184634
C        1.23738079       2.88748966      -2.44807628
C        4.21593183       4.26159794      -4.32338302
O        3.81932001       5.40113356      -4.56270259
C        5.50983034       3.73118633      -4.91411277
C        5.61149040       4.12231458      -6.39664923
H        5.50536484       5.20907913      -6.49767434
S        7.27028258       3.67605452      -7.09704331
C        8.34653899       4.71737037      -6.10943361
C        8.25272473       6.11172361      -6.20645534
C        9.08984892       6.92727257      -5.44390785
C       10.01781072       6.35455753      -4.57816562
C       10.12241813       4.96549353      -4.48380942
C        9.32746872       4.13383099      -5.28070700
N        9.36932508       2.73802159      -5.06656705
C        4.53380046       3.44885198      -7.24633798
C        4.37746697       2.05049753      -7.27871540
C        3.39507523       1.45688676      -8.07352183
C        2.55400028       2.24964653      -8.85093910
C        2.69778639       3.63470809      -8.82717938
Br       1.56141293       4.71008299      -9.88845049
C        3.67522028       4.23572340      -8.03197602
H        3.58259652       0.64648464      -1.40894496
H        5.01435261       2.05627168      -2.80775048
H        1.60648999       4.54105046      -3.77470323
H        0.18390143       3.12999633      -2.33693833
H        5.57863673       2.64701397      -4.80511166
H        6.31437513       4.17648211      -4.31953276
H        7.53116797       6.57539450      -6.87465642
H        9.00944638       8.00901504      -5.51902193
H       10.65667697       6.98862045      -3.96869079
H       10.83304447       4.53520093      -3.78332950
H        8.98755718       2.24371000      -5.87354644
H       10.29623208       2.40420230      -4.82137663
H        5.03535332       1.40553395      -6.69888744
H        3.29326235       0.37483406      -8.09349337
H        1.79708728       1.77982290      -9.47387306
H        3.77083508       5.31890052      -8.02407647
C       -1.79142062      -1.79142062      -1.79142062
C       -1.26716777      -2.95772550      -2.34674862
C       -2.07274197      -3.77159235      -3.15051809
C       -3.40828936      -3.42365142      -3.38635997
C       -3.91828417      -2.23774517      -2.83734785
C       -3.11169690      -1.42321442      -2.03803539
C       -4.32155644      -4.26562829      -4.21372807
O       -5.31278117      -3.74608934      -4.72428565
C       -4.00511809      -5.73687802      -4.41313332
C       -5.28499441      -6.57517476      -4.27028503
H       -6.04819131      -6.20086093      -4.96306606
S       -4.97876265      -8.35002905      -4.71458872
C       -4.53367153      -8.19428065      -6.44539078
C       -5.47522991      -7.72516846      -7.37050530
C       -5.13649831      -7.60557002      -8.71896101
C       -3.85637050      -7.94719446      -9.14696892
C       -2.91638082      -8.42401603      -8.23132423
C       -3.25647940      -8.60027797      -6.88524934
N       -2.24602404      -8.96153410      -5.96635559
C       -5.85193646      -6.52559121      -2.85146276
C       -5.08444369      -6.89214589      -1.73009033
C       -5.62820583      -6.85246293      -0.44481505
C       -6.94808300      -6.44828795      -0.25821495
C       -7.71796483      -6.08218384      -1.35952519
Br      -9.51175249      -5.54126505      -1.10692888
C       -7.18000889      -6.11558417      -2.64732666
H       -0.23343484      -3.24024120      -2.16435008
H       -1.62800128      -4.65938174      -3.59099175
H       -4.95076361      -1.94607975      -3.02540031
H       -3.52409255      -0.51054713      -1.61619642
H       -3.24997990      -6.07840357      -3.70237889
H       -3.57613706      -5.81678059      -5.41747235
H       -6.47805664      -7.45048972      -7.05267253
H       -5.86935919      -7.23599782      -9.43212634
H       -3.58488062      -7.83549546     -10.19361212
H       -1.91380156      -8.66030395      -8.57746938
H       -2.66058783      -9.33308535      -5.11114044
H       -1.56128312      -9.59758056      -6.36294735
H       -4.05760270      -7.23351407      -1.84865794
H       -5.02431030      -7.14696946       0.40968999
H       -7.36720464      -6.42817508       0.74459648
H       -7.79539941      -5.82347518      -3.49493748
C       -1.79142062       1.79142062       1.79142062
C       -2.85986454       1.22596303       2.48581431
C       -3.66693855       2.02867708       3.29923677
C       -3.39454316       3.39603321       3.42772438
C       -2.32813280       3.95634224       2.70890217
C       -1.52503977       3.15457087       1.89333608
C       -4.20475153       4.29592404       4.30023723
O       -4.20306832       5.50519397       4.07489387
C       -5.01616276       3.70165810       5.43730858
C       -4.86581599       4.56526217       6.69937605
H       -5.14057917       5.60175550       6.46978364
S       -6.00592769       3.99176954       8.04568319
C       -7.60369746       4.28500415       7.28464135
C       -8.00254994       5.59202247       6.97633126
C       -9.24589713       5.82716450       6.38796770
C      -10.09154484       4.75925767       6.09973136
C       -9.70358458       3.45514820       6.41298830
C       -8.48320607       3.20718581       7.05161484
N       -8.06765799       1.86965398       7.23660176
C       -3.43645585       4.55124385       7.24129073
C       -2.77886724       3.35253152       7.57528114
C       -1.47805381       3.36528971       8.08214029
C       -0.81315008       4.57538600       8.26604982
C       -1.45244108       5.76859341       7.93863938
Br      -0.55282800       7.41135142       8.19576699
C       -2.75161905       5.76359812       7.42770254
H       -3.07577582       0.16418605       2.39806426
H       -4.50805908       1.56428628       3.80602942
H       -2.11415332       5.02153165       2.78655871
H       -0.69969464       3.60373386       1.34740759
H       -4.71102253       2.67423873       5.64550111
H       -6.05202037       3.67518569       5.08318394
H       -7.35296800       6.43699474       7.19125616
H       -9.54855011       6.84306844       6.14586479
H      -11.05179984       4.93911824       5.62307012
H      -10.36390169       2.63110809       6.15656511
H       -7.33718375       1.82020559       7.94742428
H       -8.83874745       1.24177345       7.44129012
H       -3.28257772       2.39404538       7.46315161
H       -0.98766389       2.43091043       8.34301546
H        0.19636976       4.57791394       8.66923906
H       -3.23374883       6.70498493       7.17507831
C        1.79142062      -1.79142062       1.79142062
C        1.20729783      -2.76998350       2.59436057
C        2.01143509      -3.58391095       3.39950636
C        3.40263486      -3.42633296       3.38933293
C        3.97655092      -2.42544636       2.59137992
C        3.17223307      -1.61009089       1.79062277
C        4.31192600      -4.28180791       4.20717889
O        5.43459929      -3.86312441       4.48543245
C        3.83142202      -5.64103216       4.68267526
C        4.94326401      -6.68605838       4.50113182
H        5.85236807      -6.34738708       5.01236315
S        4.47019677      -8.30976173       5.26342192
C        4.33545419      -7.84663622       6.99125255
C        5.46937043      -7.41192733       7.68960592
C        5.37200508      -7.05410768       9.03491658
C        4.14272395      -7.12266833       9.68514160
C        3.01079973      -7.56385452       8.99706682
C        3.10205133      -7.97693806       7.66301733
N        1.91671855      -8.29429427       6.96290090
C        5.27569913      -6.92502134       3.02826996
C        4.29446104      -7.31466531       2.09755355
C        4.62437833      -7.54111011       0.75999538
C        5.94001989      -7.38445249       0.33011352
C        6.92030008      -6.99840682       1.24096697
Br       8.70733481      -6.79354853       0.65906307
C        6.59733198      -6.76640814       2.57917959
H        0.12868741      -2.90483454       2.60450417
H        1.52502134      -4.31898142       4.03437201
H        5.05611157      -2.28067058       2.58546152
H        3.63347793      -0.84292521       1.17443296
H        2.93183170      -5.95144410       4.14748656
H        3.56287746      -5.51120763       5.73630491
H        6.43615171      -7.34890845       7.19615873
H        6.25409073      -6.71236769       9.57102492
H        4.06138120      -6.82511634      10.72749067
H        2.05412593      -7.58548304       9.51196592
H        2.13277787      -8.84235442       6.12968133
H        1.22350535      -8.75077864       7.54752704
H        3.26290939      -7.46653370       2.41033162
H        3.85593997      -7.84979744       0.05585237
H        6.19091049      -7.57090626      -0.71103351
H        7.37556204      -6.46286762       3.27538242
C       -0.00445707       0.01189536      -1.78238275
H       -0.66409135       0.67374010      -2.43557963
H        0.65740317      -0.63156657      -2.45157240
C       -0.90989263      -0.90692880      -0.91072765
C        0.90977584       0.90977584      -0.90977584
C       -0.00465871       1.77757030       0.00794375
H       -0.66225468       2.44313916      -0.64384735
H        0.64322798       2.43503045       0.67728295
C       -1.78241447       0.00034974      -0.00472694
H       -2.45427497      -0.65498947       0.64260836
H       -2.43311707       0.67328779      -0.65473579
C       -0.91132561       0.90220522       0.91563759
C       -0.01476271      -0.02253852       1.78660255
H       -0.67934791      -0.69751639       2.42135241
H        0.63392994       0.61504881       2.47327442
C        0.01484550      -1.77751727      -0.01636693
H        0.67870853      -2.42144646      -0.68295456
H       -0.62264859      -2.45592969       0.64226336
C        1.78714474       0.01002794       0.00389507
H        2.44202412       0.67113390       0.66197326
H        2.45385902      -0.65136977      -0.64189061
C        0.91606151      -0.90478549       0.90901405
