125
Properties=species:S:1:pos:R:3 pbc="F F F"
C        0.00000000       0.00000000       0.00000000
C        0.86684295       0.86684295      -0.86684295
C        1.19645605       2.20379869      -0.61776643
N        1.98146413       2.70725400      -1.57758601
N        2.17520605       1.66244653      -2.41362154
C        1.49667766       0.53584083      -2.03642315
C        3.05993860       1.82660069      -3.56051446
H        3.36960352       2.88004678      -3.58742988
C        4.31452740       0.96828809      -3.40885748
C        2.31212063       1.53104021      -4.85959172
O        2.59580550       0.55023406      -5.54424661
N        1.34271409       2.48199128      -5.16906682
C        0.51553663       2.53741633      -6.32222155
C        0.52980151       1.52261597      -7.29189058
C       -0.26736116       1.59235494      -8.43986700
C       -1.09774229       2.68389639      -8.63671045
Br      -2.16202764       2.79361542     -10.19241699
C       -1.14353960       3.69890172      -7.68796163
C       -0.34546846       3.63897097      -6.52132809
C       -0.46668352       4.79866416      -5.56485454
F       -0.11041862       5.98178755      -6.13736984
F       -1.73944818       4.97036621      -5.11308933
F        0.30958022       4.68178478      -4.44967541
H        0.90458395       2.83635744       0.21068920
H        1.53414650      -0.38062430      -2.60960426
H        4.07545870      -0.10134476      -3.38751868
H        4.84450450       1.20866174      -2.48089155
H        5.00076716       1.13497002      -4.24624525
H        1.23162333       3.23691873      -4.48964037
H        1.15415724       0.63995521      -7.19274313
H       -0.22233324       0.78581045      -9.16798319
H       -1.79902596       4.55526826      -7.84735115
C       -0.86684295      -0.86684295      -0.86684295
C       -1.57250187      -0.44596281      -1.99955649
N       -2.26034541      -1.45017384      -2.55578488
N       -1.94967071      -2.51666160      -1.78494180
C       -1.13056239      -2.20368980      -0.73468944
C       -2.47317170      -3.82858997      -2.14529208
H       -3.14831847      -3.68852812      -3.00023359
C       -1.34692928      -4.76466059      -2.58008310
C       -3.29585531      -4.41015400      -0.99674326
O       -2.90974318      -5.40081826      -0.37972472
N       -4.49079663      -3.73080600      -0.77216956
C       -5.50454760      -4.04289790       0.17227098
C       -5.35598567      -5.08695742       1.09863504
C       -6.36702425      -5.40882303       2.01098651
C       -7.54920177      -4.68619115       2.01252837
Br      -8.92503864      -5.12708189       3.22811575
C       -7.72103074      -3.63801566       1.11572266
C       -6.70544060      -3.29998745       0.19059746
C       -7.00198614      -2.15265210      -0.74219694
F       -8.08696446      -2.39224095      -1.52953337
F       -7.27156113      -0.99623997      -0.07620626
F       -5.98372080      -1.85733739      -1.59998222
H       -1.62236733       0.53862206      -2.44650692
H       -0.80445170      -2.94297907      -0.01569568
H       -0.64017893      -4.95699096      -1.76446273
H       -0.78178086      -4.33702339      -3.41525355
H       -1.74969452      -5.73155903      -2.90072887
H       -4.65995289      -2.92334342      -1.37488612
H       -4.45206058      -5.68603386       1.15123886
H       -6.21197010      -6.22835049       2.70886019
H       -8.65284168      -3.07221851       1.12146675
C       -0.86684295       0.86684295       0.86684295
C       -1.42289716       2.09690563       0.49821838
N       -2.14291450       2.63219825       1.49119139
N       -2.06724883       1.70843265       2.47559264
C       -1.28228171       0.63596430       2.15069563
C       -2.80975328       1.92627538       3.71102509
H       -3.26780671       2.92248150       3.64679196
C       -3.93030280       0.89905848       3.86231169
C       -1.86344979       1.92882254       4.91048024
O       -1.90523584       1.03336677       5.75168355
N       -1.01576586       3.03340365       4.94460267
C       -0.06333314       3.36837670       5.94346467
C        0.20112052       2.51742445       7.02800412
C        1.12131488       2.86174380       8.02443186
C        1.79699292       4.06912544       7.95073204
Br       3.02604416       4.54856241       9.30148652
C        1.56613497       4.92752045       6.88193826
C        0.64115094       4.58989641       5.86608512
C        0.46149425       5.59875144       4.75957799
F        0.00930585       6.79785002       5.22019461
F        1.62435937       5.86486256       4.10350417
F       -0.42687694       5.21587101       3.79829246
H       -1.33954722       2.63054054      -0.43983557
H       -1.10691511      -0.18112000       2.83733135
H       -3.53828501      -0.12136123       3.94470884
H       -4.60653552       0.92645095       3.00107134
H       -4.51892057       1.09876832       4.76429353
H       -1.10856461       3.68580674       4.16381108
H       -0.29126446       1.55622897       7.13936214
H        1.29294063       2.17465341       8.84974763
H        2.10081435       5.87603494       6.82837285
C        0.86684295      -0.86684295       0.86684295
C        1.47312376      -0.47824278       2.06665462
N        2.18958943      -1.47262833       2.60408638
N        1.99662159      -2.50368175       1.75097077
C        1.22456099      -2.17365170       0.67072895
C        2.58138445      -3.80184952       2.06381978
H        3.19251036      -3.67673803       2.96783179
C        1.49398476      -4.83125832       2.36642988
C        3.50877047      -4.25612070       0.93786139
O        3.22633822      -5.22626869       0.23767926
N        4.66845944      -3.49189203       0.83342071
C        5.75615216      -3.67937692      -0.06035458
C        5.73268933      -4.66807206      -1.05645333
C        6.81635660      -4.86754514      -1.91904097
C        7.94689512      -4.07549599      -1.79952655
Br       9.42016919      -4.35151024      -2.94767465
C        7.99506961      -3.07935714      -0.83110301
C        6.90503721      -2.86489502       0.04489836
C        7.06878109      -1.76471656       1.06333754
F        8.11693369      -1.98831260       1.90349248
F        7.30271515      -0.55312255       0.48816966
F        5.98297594      -1.58857955       1.86948492
H        1.43143307       0.47637943       2.57519855
H        0.99176351      -2.88312823      -0.11176528
H        0.85238064      -5.01291831       1.49633368
H        0.85226064      -4.49418182       3.18761534
H        1.93846970      -5.79056315       2.65294957
H        4.74759457      -2.71653459       1.49405327
H        4.87456108      -5.31654190      -1.20424741
H        6.75786389      -5.64786683      -2.67427032
H        8.88670123      -2.45853441      -0.74164220
