114
Properties=species:S:1:pos:R:3 pbc="F F F"
C        1.79170809       1.79170809      -1.79170809
C        1.24933429       2.91421402      -2.40754370
C        2.05913601       3.72005046      -3.21077729
C        3.41360954       3.41010939      -3.40216201
Br       4.38797744       4.59289332      -4.52390448
C        3.94929153       2.27726433      -2.78142810
C        3.13377157       1.46750284      -1.97155354
S        5.64962736       1.80696015      -2.95105061
O        6.46817694       2.94535418      -2.59632049
O        5.83770134       0.53107358      -2.29279181
N        5.81300582       1.56911271      -4.61332495
C        5.59035542       0.22676783      -5.13902595
C        4.29257672      -0.11381429      -5.81570405
C        5.55242925      -0.00647861      -6.62350394
H        0.20277197       3.17297523      -2.26920824
H        1.61991120       4.59656377      -3.68495382
H        3.54485007       0.58809821      -1.47809842
H        6.58990872       2.10978561      -4.99525869
H        6.08091072      -0.55173335      -4.55729402
H        3.55138756       0.66796792      -5.93552636
H        3.87679414      -1.10033531      -5.64604640
H        5.99149612      -0.92240526      -7.00163879
H        5.66145231       0.84485738      -7.28355043
C       -1.79170809      -1.79170809      -1.79170809
C       -1.40149965      -3.09626579      -2.07332657
C       -2.21160182      -3.90085931      -2.87750262
C       -3.41485784      -3.40781198      -3.40321113
Br      -4.40785930      -4.61389263      -4.48302331
C       -3.79728755      -2.09343638      -3.11726004
C       -2.98200864      -1.28465285      -2.30616646
S       -5.30282797      -1.38138710      -3.72342306
O       -6.39347917      -2.25822774      -3.35814470
O       -5.32715391       0.01801868      -3.35243150
N       -5.12015806      -1.47739717      -5.39788825
C       -4.52941999      -0.33708093      -6.08964827
C       -3.09143474      -0.37916417      -6.52386756
C       -4.18509861      -0.43477047      -7.54958550
H       -0.47421407      -3.49779388      -1.67294749
H       -1.89296592      -4.92083841      -3.08762446
H       -3.27632053      -0.26269544      -2.07203073
H       -5.91560024      -1.94324239      -5.83611038
H       -4.93695003       0.62043516      -5.76995652
H       -2.52397606      -1.28531542      -6.34559036
H       -2.51157556       0.53312757      -6.44405725
H       -4.34690613       0.44201000      -8.16583353
H       -4.35594350      -1.37463142      -8.05928519
C       -1.79170809       1.79170809       1.79170809
C       -3.12382388       1.45010001       1.99716812
C       -3.92656703       2.25693894       2.80645779
C       -3.40353180       3.40730948       3.41503967
Br      -4.61417984       4.40836580       4.48222961
C       -2.06356667       3.74461050       3.19980680
C       -1.25564648       2.93085415       2.38632731
S       -1.30590835       5.16971664       3.93201314
O       -1.53413992       5.11650659       5.35920510
O        0.03710238       5.29349865       3.40517044
N       -2.22824943       6.44433133       3.32286272
C       -1.78491042       7.08275470       2.08848408
C       -2.45587806       6.75384505       0.78474336
C       -2.65624559       8.10280411       1.41040488
H       -3.54702896       0.56104311       1.53688337
H       -4.96742545       1.97512496       2.95887838
H       -0.20915131       3.18189221       2.22000318
H       -2.58213768       7.04233066       4.07048468
H       -0.71763820       7.29672318       2.07211002
H       -3.29425549       6.06686316       0.79376318
H       -1.83545450       6.68871304      -0.10166230
H       -2.17009787       8.95351607       0.94711571
H       -3.62461149       8.32391918       1.84132945
C        1.79170809      -1.79170809       1.79170809
C        3.12580453      -1.45423240       1.99105508
C        3.92855671      -2.26104739       2.80035966
C        3.40356015      -3.40726745       3.41505335
Br       4.61444753      -4.40884990       4.48147781
C        2.06159440      -3.74044305       3.20594651
C        1.25367516      -2.92670706       2.39244573
S        1.30142829      -5.16008501       3.94612482
O        1.53507638      -5.10250493       5.37227031
O       -0.04394501      -5.28087007       3.42464166
N        2.21687695      -6.44028188       3.33828466
C        1.76669540      -7.08157650       2.10787729
C        2.43408049      -6.75988393       0.80050205
C        2.63181513      -8.10727618       1.43036328
H        3.55056197      -0.56841599       1.52597747
H        4.97098734      -1.98249209       2.94794935
H        0.20566920      -3.17451693       2.23086057
H        2.57131629      -7.03684161       4.08679513
H        0.69859693      -7.29169420       2.09618026
H        3.27498586      -6.07594791       0.80394807
H        1.81065738      -6.69571481      -0.08386695
H        2.14087424      -8.95788690       0.97196852
H        3.60093922      -8.33036181       1.85855908
C       -0.00445707       0.01189536      -1.78238275
H       -0.66409135       0.67374010      -2.43557963
H        0.65740317      -0.63156657      -2.45157240
C       -0.90989263      -0.90692880      -0.91072765
C        0.90977584       0.90977584      -0.90977584
C       -0.00465871       1.77757030       0.00794375
H       -0.66225468       2.44313916      -0.64384735
H        0.64322798       2.43503045       0.67728295
C       -1.78241447       0.00034974      -0.00472694
H       -2.45427497      -0.65498947       0.64260836
H       -2.43311707       0.67328779      -0.65473579
C       -0.91132561       0.90220522       0.91563759
C       -0.01476271      -0.02253852       1.78660255
H       -0.67934791      -0.69751639       2.42135241
H        0.63392994       0.61504881       2.47327442
C        0.01484550      -1.77751727      -0.01636693
H        0.67870853      -2.42144646      -0.68295456
H       -0.62264859      -2.45592969       0.64226336
C        1.78714474       0.01002794       0.00389507
H        2.44202412       0.67113390       0.66197326
H        2.45385902      -0.65136977      -0.64189061
C        0.91606151      -0.90478549       0.90901405
