93
Properties=species:S:1:pos:R:3 pbc="F F F"
C        0.00000000       0.00000000       0.00000000
C        0.88180407       0.88180407      -0.88180407
C        0.33943027       2.00430999      -1.49763967
C        1.14923198       2.81014644      -2.30087326
C        2.50370552       2.50020537      -2.49225799
Br       3.47807341       3.68298930      -3.61400046
C        3.03938751       1.36736031      -1.87152408
C        2.22386755       0.55759881      -1.06164951
S        4.73972334       0.89705612      -2.04114659
O        5.55827291       2.03545016      -1.68641646
O        4.92779732      -0.37883045      -1.38288778
N        4.90310180       0.65920868      -3.70342093
C        4.68045139      -0.68313620      -4.22912192
C        3.38267269      -1.02371832      -4.90580002
C        4.64252523      -0.91638263      -5.71359991
H       -0.70713206       2.26307120      -1.35930421
H        0.71000717       3.68665975      -2.77504979
H        2.63494604      -0.32180581      -0.56819440
H        5.68000469       1.19988158      -4.08535467
H        5.17100669      -1.46163737      -3.64739000
H        2.64148353      -0.24193610      -5.02562233
H        2.96689012      -2.01023933      -4.73614238
H        5.08159209      -1.83230928      -6.09173477
H        4.75154828      -0.06504665      -6.37364641
C       -0.88180407      -0.88180407      -0.88180407
C       -2.18442002      -1.16829399      -0.48866593
C       -2.98903059      -1.97245424      -1.29876686
C       -2.49794143      -2.49328693      -2.50494052
Br      -3.70377123      -3.57371156      -3.49758038
C       -1.18549771      -2.20245849      -2.89031569
C       -0.37670212      -1.39138357      -2.07503018
S       -0.47604743      -2.80224744      -4.39963119
O       -1.35706751      -2.43636582      -5.48670621
O        0.92221226      -2.42716210      -4.42690481
N       -0.56672631      -4.47749924      -4.22150586
C        0.57726542      -5.16766716      -3.63603538
C        0.54056655      -5.60613015      -2.19919079
C        0.48475671      -6.62886146      -3.29563776
H       -2.58442522      -0.77173445       0.44091631
H       -4.00748141      -2.18642381      -0.97781150
H        0.64372808      -1.15346441      -2.37159830
H       -1.03359926      -4.91477585      -5.01686584
H        1.53268354      -4.84405326      -4.04538960
H       -0.36445580      -5.43209031      -1.62862365
H        1.45429039      -5.52535908      -1.62172448
H        1.36283259      -7.24211702      -3.46173316
H       -0.45412558      -7.14077133      -3.46525113
C       -0.88180407       0.88180407       0.88180407
C       -0.53807022       1.09042900       2.21288072
C       -1.34492152       1.89971091       3.01561926
C       -2.49742722       2.50512847       2.49361319
Br      -3.49821285       3.57271474       3.70413558
C       -2.83685035       2.28672401       1.15469753
C       -2.02308351       1.47325557       0.34677680
S       -4.26476767       3.01480281       0.39835557
O       -4.21382718       4.44252200       0.62379036
O       -4.39008872       2.48518712      -0.94342119
N       -5.53648336       2.40499259       1.32425546
C       -6.17340613       1.16857383       0.88445715
C       -5.84076371      -0.13327153       1.55726222
C       -7.19052336       0.49021932       1.75899983
H        0.35265365       0.63262565       2.63527136
H       -1.06143125       2.05463259       4.05565288
H       -2.27578231       1.30447786      -0.69892554
H       -6.13522681       3.15215212       1.67786202
H       -6.38935845       1.14977635      -0.18237548
H       -5.15221804      -0.12136806       2.39431978
H       -5.77512645      -1.02072493       0.93839165
H       -8.04127380       0.02440537       1.27533842
H       -7.41062421       0.92255701       2.72696682
C        0.88180407      -0.88180407       0.88180407
C        0.50848066      -2.19689034       1.13600894
C        1.31858810      -3.00138851       1.94027508
C        2.50502591      -2.49771957       2.49342340
Br       3.50011263      -3.70516224       3.56978831
C        2.87048189      -1.17287222       2.23491779
C        2.05524180      -0.36415535       1.42371872
S        4.35425454      -0.44671485       2.87695666
O        5.46481216      -1.29983056       2.51549682
O        4.36167862       0.95877418       2.52895021
N        4.14628988      -0.57298609       4.54645544
C        3.52596354       0.54623760       5.24671117
C        2.08206476       0.47396251       5.65665214
C        3.15986504       0.41919346       6.69907093
H       -0.40556826      -2.60667597       0.71413565
H        1.01331919      -4.02965282       2.12874470
H        2.33654671       0.66608807       1.21087599
H        4.94208946      -1.03308304       4.99006844
H        3.92288444       1.51527366       4.94914854
H        1.53242126      -0.43815867       5.45458983
H        1.48873918       1.37799919       5.58205318
H        3.29740484       1.28827842       7.33189116
H        3.33782514      -0.52600040       7.19632250
