101
Properties=species:S:1:pos:R:3 pbc="F F F"
C        0.00000000       0.00000000       0.00000000
C        0.88180407       0.88180407      -0.88180407
C        0.33943027       2.00430999      -1.49763967
C        1.14923198       2.81014644      -2.30087326
C        2.50370552       2.50020537      -2.49225799
C        3.03938751       1.36736031      -1.87152408
C        2.22386755       0.55759881      -1.06164951
S        4.73972334       0.89705612      -2.04114659
O        5.55827291       2.03545016      -1.68641646
O        4.92779732      -0.37883045      -1.38288778
N        4.90310180       0.65920868      -3.70342093
C        4.68045139      -0.68313620      -4.22912192
C        3.38267269      -1.02371832      -4.90580002
C        4.64252523      -0.91638263      -5.71359991
H       -0.70713206       2.26307120      -1.35930421
H        0.71000717       3.68665975      -2.77504979
H        2.63494604      -0.32180581      -0.56819440
H        5.68000469       1.19988158      -4.08535467
H        5.17100669      -1.46163737      -3.64739000
H        2.64148353      -0.24193610      -5.02562233
H        2.96689012      -2.01023933      -4.73614238
H        5.08159209      -1.83230928      -6.09173477
H        4.75154828      -0.06504665      -6.37364641
C        3.24251395       3.39704398      -3.34281228
C        3.86126602       4.14814631      -4.05515151
Br       4.86173577       5.36261526      -5.20694378
C       -0.88180407      -0.88180407      -0.88180407
C       -2.18880961      -1.15720374      -0.49536659
C       -2.99338141      -1.96140005      -1.30547022
C       -2.49786522      -2.49333308      -2.50497058
C       -1.18105448      -2.21360822      -2.88360919
C       -0.37228625      -1.40249079      -2.06833883
S       -0.46572757      -2.82790879      -4.38428970
O       -1.33721683      -2.46343346      -5.47948924
O        0.93511283      -2.46213922      -4.40482826
N       -0.56856360      -4.50132785      -4.19583995
C        0.56702878      -5.19508428      -3.59838161
C        0.51808034      -5.62385526      -2.15897948
C        0.46270993      -6.65337764      -3.24907480
H       -2.59225752      -0.75194868       0.42896283
H       -4.01528701      -2.16660997      -0.98981973
H        0.65159681      -1.17318509      -2.35974635
H       -1.03309957      -4.94076246      -4.99137892
H        1.52720087      -4.88040397      -4.00355622
H       -0.38948228      -5.44017339      -1.59551410
H        1.42852865      -5.54525627      -1.57606555
H        1.33780518      -7.27342501      -3.40539775
H       -0.47838681      -7.16025502      -3.42150620
C       -3.41260832      -3.31150111      -3.25826079
C       -4.17870566      -3.99671684      -3.88914133
Br      -5.41742027      -5.10465272      -4.90922182
C       -0.88180407       0.88180407       0.88180407
C       -0.51203943       1.13036810       2.19897240
C       -1.31904567       1.93954980       3.00165621
C       -2.49770181       2.50503246       2.49343460
C       -2.86310710       2.24660719       1.16855760
C       -2.04921023       1.43327908       0.36062657
S       -4.32546692       2.92258651       0.42987263
O       -4.30357697       4.35611337       0.62044920
O       -4.46947874       2.35808157      -0.89570566
N       -5.56007964       2.30552710       1.40012467
C       -6.17724954       1.04428865       1.00489893
C       -5.79771764      -0.23284577       1.69988253
C       -7.15696544       0.36346446       1.91931261
H        0.39909714       0.70387859       2.61046190
H       -1.01503038       2.12603239       4.03065395
H       -2.32225146       1.23353468      -0.67445151
H       -6.16814302       3.04671149       1.75038643
H       -6.41766542       0.99479440      -0.05570050
H       -5.09020196      -0.18467268       2.51964048
H       -5.72531330      -1.13313128       1.10061114
H       -8.00739174      -0.13367650       1.46730234
H       -7.36461553       0.81365589       2.88187662
C       -3.25402637       3.31831659       3.41002726
C       -3.88744818       3.99944204       4.17767361
Br      -4.91163768       5.10076430       5.41889284
C        0.88180407      -0.88180407       0.88180407
C        0.52948481      -2.20854019       1.10335493
C        1.33959460      -3.01292612       1.90773097
C        2.50510565      -2.49749518       2.49356805
C        2.84945192      -1.16106852       2.26775146
C        2.03426195      -0.35242830       1.45642562
S        4.30612378      -0.41926403       2.95253825
O        5.43990485      -1.24365980       2.59657488
O        4.29271255       0.99265177       2.63179386
N        4.06865429      -0.58216348       4.61491363
C        3.41320573       0.51102042       5.32425181
C        1.96339375       0.40302400       5.70438465
C        3.02184614       0.34856293       6.76645929
H       -0.36809819      -2.62746305       0.65587850
H        1.05095147      -4.05035461       2.07041064
H        2.29937932       0.68699557       1.26895088
H        4.86464414      -1.03549213       5.06510467
H        3.79672049       1.49313832       5.05317715
H        1.43569261      -0.51535190       5.47412526
H        1.35402585       1.29678908       5.63555640
H        3.13017035       1.20757359       7.41842083
H        3.20869538      -0.60259301       7.24885965
C        3.26159285      -3.41417704       3.30660032
C        3.89515088      -4.18189810       3.98751485
Br       4.91956063      -5.42323812       5.08849606
