130
Properties=species:S:1:pos:R:3 pbc="F F F"
C       -1.77710840       8.15350310      -8.07258830
C       -0.60356327       7.48883292      -7.45275030
C        0.74108280       7.77023610      -7.58630336
N        1.59798531       6.93619891      -6.89409305
C        0.89385178       6.08770046      -6.18657931
S       -0.79783200       6.14710062      -6.40147765
N        1.61262609       5.11947298      -5.44038469
S        1.37211843       5.28331030      -3.77736785
O        2.19024705       6.37165073      -3.29345212
O       -0.04571625       5.22544519      -3.48587817
C        2.08503402       3.77977513      -3.14371086
C        1.27102116       2.95891503      -2.34458504
C        1.79144438       1.79144438      -1.79144438
C        3.11305483       1.42684263      -2.02874263
C        3.92302811       2.24125906      -2.82299798
C        3.41858788       3.42481108      -3.38016703
H       -1.46539029       9.00988997      -8.67977514
H       -2.46902532       8.51977302      -7.30735265
H       -2.31500557       7.45868871      -8.72602993
H        1.15655920       8.56845163      -8.19046908
H        2.59171918       5.33605815      -5.64148156
H        0.23741181       3.23360461      -2.14101003
H        3.52480275       0.51721414      -1.59741387
H        4.95596574       1.94333139      -2.99511448
C        4.34459952       4.19415856      -4.17023469
C        5.12013426       4.83848708      -4.83191636
Br       6.37410835       5.88031179      -5.90179965
C      -11.40987337      -1.49605075      -1.54305887
C      -10.16228136      -2.08366868      -2.09206991
C       -9.99096028      -2.97325637      -3.13340561
N       -8.68758942      -3.35840547      -3.38228237
C       -7.88471769      -2.70013389      -2.58327997
S       -8.63120602      -1.69908071      -1.42045952
N       -6.50180222      -3.00208221      -2.66859933
S       -5.58565142      -1.67601832      -3.17112684
O       -5.71858826      -1.53381759      -4.60294405
O       -5.82575660      -0.55769018      -2.28216034
C       -3.92173225      -2.22772303      -2.85906474
C       -3.11304199      -1.42594275      -2.03553649
C       -1.79144438      -1.79144438      -1.79144438
C       -1.26501089      -2.95038873      -2.35324047
C       -2.06750222      -3.74837544      -3.17140749
C       -3.39719935      -3.39083380      -3.43553285
H      -12.28210907      -1.82369941      -2.11846634
H      -11.37647331      -0.40240326      -1.57922377
H      -11.55927796      -1.80672510      -0.50371000
H      -10.78772077      -3.38727023      -3.74048892
H       -6.45392136      -3.71534576      -3.39999176
H       -3.50580482      -0.51101541      -1.59520622
H       -0.23297339      -3.23909654      -2.16736084
H       -1.63851306      -4.64957586      -3.60632269
C       -4.12810382      -4.27820421      -4.30268474
C       -4.74023630      -5.02137694      -5.02892446
Br      -5.73000276      -6.22302437      -6.20319265
C        1.21889595       5.53421274      10.13366621
C        0.14075453       5.34820679       9.13056769
C       -1.10257934       5.94245969       9.05258323
N       -1.89842213       5.52790801       8.00194712
C       -1.22328531       4.68853670       7.25630954
S        0.32490400       4.25091847       7.82473179
N       -1.90252017       4.12214099       6.14782260
S       -1.20068385       4.55693727       4.67517546
O       -1.61723604       5.89912164       4.33899222
O        0.19977858       4.18645025       4.67893545
C       -2.01512209       3.46162341       3.53177451
C       -1.20647881       2.63808032       2.72996210
C       -1.79144438       1.79144438       1.79144438
C       -3.17439584       1.74980486       1.64443939
C       -3.97927681       2.56721667       2.44079168
C       -3.40710055       3.43240371       3.38406174
H        0.94153253       6.29762165      10.86818571
H        2.14939626       5.85389419       9.65360242
H        1.40806326       4.60186499      10.67591133
H       -1.48888799       6.67926081       9.74733112
H       -2.83299119       4.54433838       6.19192931
H       -0.12228667       2.66452194       2.82521785
H       -3.63597251       1.09188841       0.91156983
H       -5.05929786       2.52522934       2.30988441
C       -4.32946715       4.23904655       4.14047907
C       -5.10194917       4.91460994       4.77397859
Br      -6.35098727       6.00693879       5.79829372
C        9.72500939      -6.17450814      -1.45053453
C        8.77515792      -5.90507317      -0.34221114
C        8.85834895      -6.24679162       0.99248170
N        7.78123027      -5.87373360       1.77331340
C        6.93664442      -5.18939731       1.04208982
S        7.30564312      -5.06424170      -0.61913856
N        5.74131552      -4.75906812       1.67210012
S        5.62012591      -3.07636141       1.73630926
O        6.45073175      -2.59038668       2.81423147
O        5.73488125      -2.53196363       0.39876224
C        3.92887122      -2.83944074       2.24020806
C        3.11107663      -2.04093898       1.42250562
C        1.79144438      -1.79144438       1.79144438
C        1.27257078      -2.33245942       2.96360989
C        2.08383860      -3.12650114       3.77694541
C        3.41726110      -3.38038597       3.42591892
H       10.62074398      -6.68532055      -1.08178971
H       10.04382553      -5.24248126      -1.92820644
H        9.26316324      -6.81539983      -2.20885000
H        9.68058980      -6.78383305       1.45105707
H        5.83308137      -5.10659178       2.62958573
H        3.50330722      -1.60207178       0.50664746
H        0.24331811      -2.13892466       3.25718799
H        1.66319031      -3.53848847       4.69273282
C        4.16553804      -4.19978343       4.34367130
C        4.79221998      -4.88602879       5.11228893
Br       5.80551167      -5.99562951       6.35507862
C       -0.00445707       0.01189536      -1.78238275
H       -0.66409135       0.67374010      -2.43557963
H        0.65740317      -0.63156657      -2.45157240
C       -0.90989263      -0.90692880      -0.91072765
C        0.90977584       0.90977584      -0.90977584
C       -0.00465871       1.77757030       0.00794375
H       -0.66225468       2.44313916      -0.64384735
H        0.64322798       2.43503045       0.67728295
C       -1.78241447       0.00034974      -0.00472694
H       -2.45427497      -0.65498947       0.64260836
H       -2.43311707       0.67328779      -0.65473579
C       -0.91132561       0.90220522       0.91563759
C       -0.01476271      -0.02253852       1.78660255
H       -0.67934791      -0.69751639       2.42135241
H        0.63392994       0.61504881       2.47327442
C        0.01484550      -1.77751727      -0.01636693
H        0.67870853      -2.42144646      -0.68295456
H       -0.62264859      -2.45592969       0.64226336
C        1.78714474       0.01002794       0.00389507
H        2.44202412       0.67113390       0.66197326
H        2.45385902      -0.65136977      -0.64189061
C        0.91606151      -0.90478549       0.90901405
