185
Properties=species:S:1:pos:R:3 pbc="F F F"
C        0.00000000       0.00000000       0.00000000
C        0.88117588       0.88117588      -0.88117588
C        0.31424260       1.92825996      -1.60229433
C        1.12279816       2.73354304      -2.40806281
C        2.50586334       2.50491496      -2.49341711
C        3.05591504       1.43373524      -1.77267485
C        2.24862891       0.63007979      -0.96349738
C        3.33887030       3.37276084      -3.41159946
C        4.78806713       3.53978348      -2.97401615
O        5.07450590       4.22714521      -1.99967445
N        5.67474373       2.84766605      -3.77837377
C        7.04148291       2.71714541      -3.57657845
C        7.88989838       2.96723019      -2.46143806
C        7.57146340       3.40163907      -1.07760927
N        9.16856318       2.69365988      -2.75335299
N        9.14794109       2.27084162      -4.02921344
C       10.41525707       1.88042195      -4.64413480
C       10.96510108       2.89014950      -5.63003823
C       10.77638026       4.27382335      -5.47909419
C       11.35255221       5.17660491      -6.37766585
C       12.14175334       4.70531068      -7.42318560
C       12.35976878       3.33866461      -7.57841951
C       11.77696265       2.43645041      -6.68378311
C        7.88072157       2.21687442      -4.55954134
C        7.57984666       1.73843199      -5.93427358
H       -0.75252381       2.12699501      -1.54393044
H        0.66380251       3.54737708      -2.96634443
H        4.12068427       1.21372912      -1.81603754
H        2.69777254      -0.18524252      -0.40149212
H        2.91477564       4.38347265      -3.46079245
H        3.28482816       2.95831551      -4.42424788
H        5.32753393       2.46903838      -4.64847687
H        6.72392560       2.83755751      -0.67845118
H        7.35296564       4.47178643      -1.04668708
H        8.41697482       3.22220620      -0.40324548
H       10.24077132       0.91119443      -5.12566156
H       11.14550643       1.72643928      -3.84043832
H       10.18678530       4.66873838      -4.65228786
H       11.18905696       6.24236482      -6.24276849
H       12.98947857       2.96658166      -8.38367520
H       11.97468878       1.37422650      -6.80999095
H        7.07116571       2.52321771      -6.50507493
H        6.91730121       0.86677734      -5.88972040
H        8.47006999       1.44670316      -6.49701045
C       12.74739963       5.63529991      -8.34074355
C       13.25462840       6.41416589      -9.10919834
Br      14.07477441       7.67352631     -10.35172473
C       -0.88117588      -0.88117588      -0.88117588
C       -0.80427363      -2.26693260      -0.77359066
C       -1.61189237      -3.07143045      -1.58108119
C       -2.50935396      -2.49815151      -2.49668994
C       -2.55974488      -1.09970996      -2.60287029
C       -1.75510901      -0.29412709      -1.79296997
C       -3.33439285      -3.40552661      -3.38331113
C       -4.67345034      -2.81855924      -3.80985718
O       -5.59258061      -2.70234889      -3.00639606
N       -4.70012679      -2.45648255      -5.14417421
C       -5.73306817      -1.80195101      -5.80018759
C       -6.88019048      -1.09195231      -5.34642384
C       -7.32891842      -0.74864096      -3.97315235
N       -7.60612459      -0.63418825      -6.37526320
N       -6.94055542      -1.03529487      -7.47214587
C       -7.48781500      -0.67359024      -8.77840860
C       -8.15496265      -1.81859480      -9.51173136
C       -8.83704640      -2.84873932      -8.84351208
C       -9.49241901      -3.85473233      -9.55967164
C       -9.49090459      -3.82778976     -10.95155526
C       -8.83930944      -2.80355453     -11.63398894
C       -8.17793031      -1.80234808     -10.91691778
C       -5.77361473      -1.70163284      -7.18188976
C       -4.83138739      -2.20648675      -8.21467810
H       -0.12221662      -2.73035728      -0.06582774
H       -1.53885272      -4.15319143      -1.48547987
H       -3.23318451      -0.61230498      -3.30496144
H       -1.82101253       0.78767393      -1.88068353
H       -3.56305919      -4.34007159      -2.85590997
H       -2.73315305      -3.67600060      -4.25823789
H       -3.94178067      -2.76895375      -5.73431476
H       -6.49562481      -0.36880254      -3.37550694
H       -7.77345687      -1.61700721      -3.48097507
H       -8.09014314       0.04004245      -3.99232582
H       -6.65496886      -0.26217048      -9.36048796
H       -8.21734626       0.13108019      -8.62611795
H       -8.87700444      -2.87580753      -7.75499957
H      -10.00999718      -4.64358762      -9.02060547
H       -8.84969387      -2.76880762     -12.72123393
H       -7.69121947      -1.00024122     -11.46744555
H       -4.70014403      -3.28921378      -8.11010054
H       -3.85164746      -1.73171675      -8.09043474
H       -5.16371628      -2.01254094      -9.23752638
C      -10.17786887      -4.85564082     -11.68993339
C      -10.75320145      -5.71646609     -12.30832508
Br     -11.68346558      -7.10834774     -13.30821213
C       -0.88117588       0.88117588       0.88117588
C       -1.81568680       0.29729652       1.73181356
C       -2.62102600       1.10586054       2.53751747
C       -2.49351751       2.50414764       2.50653027
C       -1.55798445       3.07461875       1.62972192
C       -0.74937950       2.26658756       0.82623902
C       -3.41519782       3.34525850       3.36277428
C       -2.82477536       4.68043418       3.79665722
O       -1.93397263       4.72930571       4.63804722
N       -3.39765147       5.75753517       3.14559691
C       -3.00511773       7.08483251       3.24525654
C       -1.83957441       7.72014797       3.75884424
C       -0.58746344       7.14783460       4.31541369
N       -1.92139786       9.05231157       3.64186661
N       -3.11284179       9.27469065       3.06046371
C       -3.49563889      10.65840196       2.78577298
C       -4.54101066      11.21361163       3.73066652
C       -4.62146376      10.82871193       5.07912212
C       -5.56202439      11.41057090       5.93422768
C       -6.41651103      12.39934698       5.45439160
C       -6.33901987      12.81142392       4.12640912
C       -5.40325348      12.22356706       3.27037563
C       -3.78755771       8.11716263       2.75241699
C       -5.10371167       8.08643530       2.06240527
H       -1.92466674      -0.78298107       1.77671597
H       -3.34756188       0.63372355       3.19623859
H       -1.43140916       4.15345249       1.56558928
H       -0.02023632       2.72870407       0.16508174
H       -3.66706435       2.80693191       4.28504448
H       -4.35403794       3.49493168       2.81842193
H       -4.23960385       5.59406403       2.61138130
H       -0.22149042       6.33011884       3.68832503
H       -0.74315611       6.79168042       5.33660262
H        0.20885242       7.90048422       4.35079471
H       -3.84716986      10.68273512       1.74772232
H       -2.59103494      11.27565737       2.84569172
H       -3.94457878      10.07777474       5.48545802
H       -5.60804505      11.09357034       6.97257488
H       -6.99299389      13.59559006       3.75115147
H       -5.34484095      12.57240082       2.24166447
H       -5.84461233       7.57114816       2.68369786
H       -5.01635184       7.54195280       1.11549431
H       -5.49828678       9.07997062       1.83552620
C       -7.37592590      13.00942283       6.33809436
C       -8.17943586      13.52036135       7.07819541
Br      -9.47864350      14.34650573       8.27487623
C        0.88117588      -0.88117588       0.88117588
C        1.78408493      -1.76454127       0.29617069
C        2.58967759      -2.56998269       1.10474373
C        2.50614911      -2.49344866       2.50459764
C        1.57752574      -1.60948446       3.07531492
C        0.77401686      -0.80072394       2.26746527
C        3.36524141      -3.41451041       3.34347878
C        3.73171108      -2.85741144       4.71274424
O        4.53869561      -1.94052962       4.82210033
N        3.06482478      -3.49028072       5.74567805
C        3.10479217      -3.14203115       7.08838346
C        3.55445086      -1.98287442       7.78124135
C        4.08545003      -0.69280949       7.27245221
N        3.39475750      -2.11601776       9.10480078
N        2.84881963      -3.33389180       9.26528473
C        2.54054437      -3.77489325      10.62437622
C        3.50240183      -4.80627633      11.17661065
C        4.86529392      -4.82660538      10.83739850
C        5.73282832      -5.75733878      11.41665588
C        5.25001157      -6.66244822      12.35778982
C        3.90673918      -6.64534108      12.72477264
C        3.03865466      -5.71921453      12.13932698
C        2.60492788      -3.97717863       8.07503082
C        1.96364776      -5.31433560       7.97456887
H        1.86992616      -1.83340671      -0.78493123
H        3.28966560      -3.25619746       0.63166096
H        1.47190135      -1.52365453       4.15489504
H        0.07184718      -0.11163222       2.73054273
H        4.31384040      -3.61522669       2.82997365
H        2.84981864      -4.37622983       3.44134308
H        2.56683786      -4.34374045       5.53447087
H        3.47420191      -0.31973398       6.44599840
H        5.12316556      -0.80055303       6.94772056
H        4.06659383       0.07696657       8.05279924
H        1.51543641      -4.16252500      10.59966589
H        2.54699461      -2.89130100      11.27408841
H        5.27284822      -4.10986829      10.12509503
H        6.78243354      -5.75634819      11.13540855
H        3.52826820      -7.33930983      13.47215739
H        1.99713903      -5.70863003      12.45313718
H        2.62824673      -6.01464818       7.45656345
H        1.03349469      -5.24024285       7.40006142
H        1.71695035      -5.75157472       8.94525853
C        6.14580955      -7.61203425      12.96559929
C        6.89604036      -8.40731255      13.47463971
Br       8.10910013      -9.69321030      14.29771502
