161
Properties=species:S:1:pos:R:3 pbc="F F F"
C        0.00000000       0.00000000       0.00000000
C        0.88184766       0.88184766      -0.88184766
C        0.32734668       1.96966397      -1.55361325
C        1.13466576       2.77461390      -2.36079898
C        2.50553880       2.50432632      -2.49127544
C        3.04865272       1.41056470      -1.79750020
C        2.23921837       0.59529728      -1.00388184
C        3.39345495       3.39910321      -3.31976050
N        3.23038612       3.23803571      -4.76527584
N        2.80542403       4.29915707      -5.47769216
C        3.03617010       3.96829263      -6.75557529
C        2.80442932       4.99672152      -7.80327937
C        3.58187821       2.66040960      -6.86268635
N        4.02591876       1.91426892      -7.94149962
C        3.71997445       2.11033177      -9.27093636
O        2.84958196       2.86623736      -9.69910367
C        4.50902157       1.27033658     -10.15132950
C        4.35283295       0.94060401     -11.48510222
C        5.45737478       0.12806551     -11.83911516
C        6.22728777       0.01552782     -10.70450673
O        5.65023397       0.67774827      -9.66899069
C        3.67734812       2.20462617      -5.55820833
C        4.12630788       0.89800237      -5.00904979
H       -0.72999029       2.20043989      -1.45292200
H        0.69130671       3.62447855      -2.87936000
H        4.11019320       1.18264626      -1.86797062
H        2.67675030      -0.25160828      -0.48190356
H        4.45340448       3.22379967      -3.10332016
H        3.19154360       4.44935741      -3.07049608
H        3.61842073       5.00022093      -8.53489467
H        2.76989293       6.00149519      -7.36790826
H        1.85535228       4.82163842      -8.31522944
H        4.61100929       1.11629106      -7.73778174
H        3.53553873       1.26328879     -12.11789231
H        5.66967669      -0.30659082     -12.80665758
H        3.29425545       0.39019560      -4.51249640
H        4.94313323       1.03205546      -4.29659750
H        4.48156682       0.22762493      -5.79414430
C        7.47664612      -0.69529362     -10.61827107
C        8.52298374      -1.29060658     -10.54604870
Br      10.21482317      -2.25317729     -10.42927124
C       -0.88184766      -0.88184766      -0.88184766
C       -0.94472620      -0.65113285      -2.25476486
C       -1.75258206      -1.45753392      -3.05996267
C       -2.49342559      -2.50898242      -2.49873254
C       -2.40838955      -2.73343175      -1.11489633
C       -1.61436575      -1.91728637      -0.30674538
C       -3.32758546      -3.41604799      -3.36868521
N       -4.56775830      -2.81031595      -3.85562341
N       -4.72567606      -2.67068322      -5.18591399
C       -6.02507704      -2.38641521      -5.34854577
C       -6.56247796      -2.30979415      -6.73215810
C       -6.69904199      -2.30604145      -4.09989071
N       -8.02516204      -2.09543801      -3.76108725
C       -9.00799840      -1.54094556      -4.55229862
O       -8.82249124      -0.96795300      -5.62447874
C      -10.32587200      -1.64830441      -3.95651124
C      -11.51780022      -1.01141080      -4.24932816
C      -12.49588277      -1.55028090      -3.37839178
C      -11.84702358      -2.48962220      -2.61067654
O      -10.52822003      -2.53838997      -2.93036293
C       -5.72476774      -2.56530682      -3.15010806
C       -5.78667675      -2.58193595      -1.66474734
H       -0.36712408       0.15083094      -2.70707847
H       -1.79215172      -1.27015363      -4.13283991
H       -2.96052453      -3.54854702      -0.65173853
H       -1.56864975      -2.10171601       0.76332018
H       -3.61419010      -4.33007697      -2.83625723
H       -2.73914075      -3.73181493      -4.24044142
H       -7.52802477      -2.81986697      -6.80564458
H       -5.89161074      -2.80460632      -7.44307932
H       -6.67504095      -1.26984737      -7.04733181
H       -8.30316571      -2.34061724      -2.82129914
H      -11.65169814      -0.25375587      -5.01126581
H      -13.54563421      -1.29364634      -3.33046291
H       -5.15801946      -1.78806118      -1.25086680
H       -5.45715174      -3.54520939      -1.26942506
H       -6.79980555      -2.40536160      -1.29816890
C      -12.47122492      -3.31723602      -1.61116263
C      -12.99399355      -4.01036259      -0.77406972
Br     -13.83926620      -5.13108963       0.57943870
C       -0.88184766       0.88184766       0.88184766
C       -2.09532949       0.39313135       1.36216306
C       -2.90148440       1.20108123       2.16751302
C       -2.49291200       2.49956351       2.50866504
C       -1.26145439       2.97059494       2.02466831
C       -0.46283678       2.16987660       1.20568412
C       -3.33350158       3.35911314       3.41970394
N       -4.53466887       3.90916088       2.78986791
N       -5.73303474       3.55604494       3.29319358
C       -6.60210072       4.41494284       2.74299446
C       -8.01386185       4.38387273       3.20669564
C       -5.95367337       5.30586954       1.84543125
N       -6.40765097       6.37816025       1.09587607
C       -7.71049781       6.65160652       0.73913825
O       -8.66225249       5.88373911       0.86893139
C       -7.85418852       7.95560357       0.12089556
C       -8.88381154       8.51102429      -0.61629665
C       -8.50167252       9.84087603      -0.91799311
C       -7.26588984      10.02278127      -0.34134878
O       -6.85011180       8.88140582       0.26545531
C       -4.61804278       4.94074807       1.88139177
C       -3.44213157       5.45813459       1.13309387
H       -2.42030539      -0.61489285       1.11795907
H       -3.84717605       0.80788666       2.54008255
H       -0.91090860       3.96794119       2.28196028
H        0.48274124       2.55575446       0.83403236
H       -2.76359349       4.21249105       3.80443976
H       -3.64701934       2.77152748       4.29285028
H       -8.39843526       5.39735264       3.35774842
H       -8.10072271       3.86881798       4.16975569
H       -8.64647863       3.85761867       2.48812284
H       -5.71054836       7.01605799       0.73847575
H       -9.80131752       8.00511313      -0.88971082
H       -9.06703153      10.57667617      -1.47396424
H       -3.03829169       4.68050782       0.47814793
H       -2.65989107       5.79528923       1.81660590
H       -3.70663956       6.30279690       0.49389959
C       -6.51357561      11.25041856      -0.36437060
C       -5.88351245      12.27856478      -0.38365138
Br      -4.86475361      13.94099028      -0.41482676
C        0.88184766      -0.88184766       0.88184766
C        0.72844764      -2.26671475       0.85546151
C        1.53469844      -3.07200125       1.66337895
C        2.50924169      -2.49785866       2.49404021
C        2.65698019      -1.10116111       2.49857633
C        1.84008251      -0.29427400       1.70404099
C        3.41815898      -3.36368081       3.33047887
N        2.77446245      -3.95470721       4.50452800
N        2.70413198      -5.29760904       4.58053225
C        2.35869655      -5.55112189       5.85021958
C        2.33338341      -6.96582549       6.30522131
C        2.16867271      -4.35020424       6.58609720
N        1.86596171      -4.10139751       7.91432808
C        1.30525009      -4.97789352       8.81809896
O        0.80682290      -6.06736321       8.54073687
C        1.30495045      -4.45493830      10.17079890
C        0.62153339      -4.85137245      11.30563334
C        1.05402900      -4.01058103      12.35994542
C        1.98132603      -3.15577946      11.81021683
O        2.12120523      -3.39487020      10.48089749
C        2.42539265      -3.33240627       5.68238370
C        2.35196903      -1.85452299       5.82686802
H       -0.01275421      -2.72806763       0.20805818
H        1.40828616      -4.15404938       1.63280972
H        3.41206157      -0.62679005       3.12195845
H        1.96405606       0.78516731       1.72815682
H        4.28242127      -2.79933590       3.69876714
H        3.81613640      -4.18093488       2.71432582
H        2.79292034      -7.06727020       7.29334579
H        2.90499279      -7.60809697       5.62620662
H        1.30896007      -7.34382036       6.33943970
H        2.04025510      -3.16733964       8.25748736
H       -0.09663810      -5.66038894      11.35296899
H        0.73761261      -4.03813613      13.39399471
H        1.57114689      -1.44904992       5.17675063
H        3.30724275      -1.38821258       5.57633087
H        2.09879616      -1.55791069       6.84662920
C        2.71362964      -2.15029264      12.53570128
C        3.32693392      -1.30819743      13.14329451
Br       4.31859505       0.05339930      14.12572136
