109
Properties=species:S:1:pos:R:3 pbc="F F F"
C        0.00000000       0.00000000       0.00000000
C        0.88155138       0.88155138      -0.88155138
C        2.20838878       1.11318348      -0.52337218
C        3.02159473       1.91281689      -1.33407174
C        2.50940551       2.46762063      -2.50753796
C        1.17150131       2.24335901      -2.84607219
C        0.35546472       1.44914199      -2.03833037
O        3.19852295       3.24086763      -3.39780328
C        4.61521194       3.28323100      -3.26433436
C        5.20036729       3.78543957      -4.57979800
O        5.69510179       4.91569325      -4.66372909
N        5.18914766       3.00629511      -5.69988835
C        4.78258035       1.70772799      -5.77783061
N        4.40306272       0.90125860      -4.81942955
C        4.06785596      -0.32588898      -5.36414282
C        4.23435573      -0.41237636      -6.72453198
S        4.81494612       1.05332439      -7.35714638
H        2.62091213       0.67703365       0.38260307
H        4.04634377       2.08219302      -1.02090175
H        0.76597862       2.68381930      -3.75381884
H       -0.67913501       1.28010757      -2.32298762
H        5.07167703       2.32048513      -3.01368353
H        4.87867616       4.00233403      -2.47952290
H        5.52766912       3.44407796      -6.54406922
H        3.71097224      -1.11424258      -4.71226012
C        3.95733519      -1.58654817      -7.51077633
C        3.72533048      -2.56991707      -8.16925596
Br       3.35019850      -4.15994140      -9.23396184
C       -0.88155138      -0.88155138      -0.88155138
C       -1.91907922      -1.61590024      -0.30996499
C       -2.73474215      -2.41732140      -1.11641980
C       -2.51889288      -2.47171054      -2.49396069
C       -1.46302034      -1.74520048      -3.05271168
C       -0.64443641      -0.94707827      -2.25142241
O       -3.25381440      -3.18900458      -3.39437487
C       -4.49301580      -3.72578717      -2.94397433
C       -5.33836671      -4.05866683      -4.16857132
O       -5.54438267      -5.23289401      -4.49724744
N       -5.88479477      -3.07289616      -4.93764019
C       -5.85318639      -1.73487023      -4.68008234
N       -5.38653301      -1.10552239      -3.63169547
C       -5.55629155       0.25667933      -3.80649759
C       -6.17653082       0.60975974      -4.97974027
S       -6.56025317      -0.76629310      -5.89887060
H       -2.10321410      -1.57239489       0.76026628
H       -3.52633648      -2.98462026      -0.63848180
H       -1.28481695      -1.79451472      -4.12428509
H        0.16560915      -0.38374516      -2.70582418
H       -5.06005712      -3.05756411      -2.28822445
H       -4.30163096      -4.65863528      -2.40026684
H       -6.36559304      -3.37979300      -5.77043026
H       -5.20671248       0.93614683      -3.03842413
C       -6.46602348       1.96285549      -5.37839535
C       -6.70847358       3.09607319      -5.71226899
Br      -7.10049488       4.92839036      -6.25211442
C       -0.88155138       0.88155138       0.88155138
C       -1.09108826       0.53795807       2.21589811
C       -1.89069087       1.34883521       3.02895727
C       -2.46760315       2.50808368       2.50887728
C       -2.26532011       2.83179284       1.16381955
C       -1.47120903       2.02376480       0.34796326
O       -3.24349579       3.39721617       3.19648189
C       -3.26559564       3.28195303       4.61522862
C       -3.77747684       4.59837324       5.18975479
O       -4.90218794       4.67408024       5.69825594
N       -3.01342650       5.72829148       5.15361314
C       -1.72142101       5.81779276       4.72892518
N       -0.90736961       4.86506436       4.35131690
C        0.30798705       5.42126762       3.99282924
C        0.37864160       6.78475273       4.14040023
S       -1.08759435       7.40580539       4.73201714
H       -0.63764785      -0.35671239       2.63440725
H       -2.04252073       1.04706082       4.05985699
H       -2.72300230       3.72827071       0.75234374
H       -1.31947230       2.29689664      -0.69240876
H       -2.29374320       3.04994829       5.06215419
H       -3.97075658       2.49137541       4.89840109
H       -3.45787955       6.57108946       5.48684730
H        1.10016751       4.77506754       3.63408976
C        1.53859687       7.58252341       3.83763680
C        2.51005942       8.25065636       3.58407243
Br       4.08083219       9.33097083       3.17408029
C        0.88155138      -0.88155138       0.88155138
C        1.26882437      -0.43308509       2.14303498
C        2.06878907      -1.24251223       2.95718205
C        2.46813207      -2.50357181       2.51286022
C        2.08882129      -2.93422171       1.23788950
C        1.29370086      -2.12848983       0.42074640
O        3.22318892      -3.40017354       3.21383139
C        3.41180072      -3.14869301       4.60228356
C        3.85121101      -4.45015133       5.26424252
O        5.01186968      -4.59807415       5.66458030
N        2.98012860      -5.48761349       5.42758903
C        1.64689137      -5.47650775       5.14473984
N        0.89431556      -4.48225780       4.74717750
C       -0.40187866      -4.93462534       4.57336312
C       -0.59004639      -6.26093286       4.87562489
S        0.86373708      -6.97745642       5.38422338
H        0.95439166       0.54274674       2.50369779
H        2.36162665      -0.85900949       3.92880241
H        2.40804156      -3.91161227       0.88396293
H        1.00274228      -2.48460699      -0.56338908
H        2.52238624      -2.76871038       5.11474907
H        4.21823181      -2.41605774       4.72624353
H        3.37312139      -6.33702876       5.80566615
H       -1.16098115      -4.24409158       4.22587936
C       -1.84916089      -6.95280325       4.77792098
C       -2.90366928      -7.53224470       4.69609395
Br      -4.60872015      -8.46915252       4.56378657
