145
Properties=species:S:1:pos:R:3 pbc="F F F"
C        0.00000000       0.00000000       0.00000000
C        0.86699549       0.86699549      -0.86699549
C        0.43641135       1.97146976      -1.61085464
N        1.44516202       2.54447260      -2.27722642
N        2.51250280       1.77039116      -1.97084299
C        2.21225878       0.75898369      -1.09673260
C        3.82478460       2.07736331      -2.52582692
C        4.03588683       1.36953757      -3.81531802
C        3.98889556       0.04163777      -4.19003599
C        4.27053493       0.00525885      -5.57496433
C        4.49121632       1.30900842      -5.97395603
O        4.36678556       2.14455931      -4.89194181
C        4.81668952       1.85864663      -7.27918916
O        4.89860502       1.14510194      -8.27380031
N        5.03442958       3.21668958      -7.23512737
C        5.40257311       3.94132456      -8.33035364
N        5.52659253       3.55504048      -9.57083967
C        5.96153964       4.61316492     -10.34569515
C        6.21247767       4.57269537     -11.73209501
C        6.67768239       5.71701348     -12.38855829
C        6.89010737       6.89214907     -11.67474079
C        6.63825423       6.96896290     -10.30166864
C        6.16953159       5.81172651      -9.65725584
S        5.76101126       5.57440577      -7.99766835
H       -0.55755778       2.39048701      -1.69852014
H        2.95976334       0.06593607      -0.73841539
H        4.57553801       1.76979816      -1.79009523
H        3.88743503       3.16475328      -2.64252665
H        3.76062174      -0.79911492      -3.54872345
H        4.30977441      -0.86085301      -6.22295745
H        4.96613295       3.69334425      -6.34744604
H        6.04705992       3.64757117     -12.27657684
H        6.87318586       5.67161194     -13.45727951
H        6.80196111       7.88656193      -9.74577502
C        7.38328028       8.05687954     -12.36306004
C        7.79631260       9.03234131     -12.93952742
Br       8.46415093      10.60958049     -13.87162641
C       -0.86699549      -0.86699549      -0.86699549
C       -2.17793363      -0.57810775      -1.26269437
N       -2.68529636      -1.54180954      -2.03975514
N       -1.69099141      -2.45801066      -2.10473489
C       -0.56066359      -2.07615147      -1.43116000
C       -1.87200920      -3.68384984      -2.87211578
C       -2.43308585      -4.76580125      -2.02185531
C       -2.02857532      -5.35253310      -0.83946090
C       -3.00201664      -6.32721329      -0.52152818
C       -3.94310014      -6.29899653      -1.53208410
O       -3.58514837      -5.35546351      -2.46267479
C       -5.15467614      -7.07875841      -1.72109077
O       -5.52328442      -7.90335675      -0.89086610
N       -5.77950071      -6.79328984      -2.91345597
C       -6.90722512      -7.43807411      -3.32895208
N       -7.63019374      -8.32337495      -2.69890399
C       -8.66514606      -8.74241901      -3.51283464
C       -9.64731012      -9.69519168      -3.17476625
C      -10.62633267     -10.04695386      -4.10996764
C      -10.63119886      -9.45622159      -5.36957676
C       -9.67924103      -8.49832126      -5.73132349
C       -8.70382697      -8.15438349      -4.78030348
S       -7.40922882      -7.02025246      -4.90360410
H       -2.78745446       0.28511856      -1.02911347
H        0.32901607      -2.68870723      -1.40442363
H       -0.89307893      -3.97384459      -3.26850788
H       -2.52663988      -3.44949707      -3.71857802
H       -1.14887191      -5.09752736      -0.26383101
H       -3.03141489      -6.98104239       0.34057843
H       -5.36306155      -6.11206187      -3.53179982
H       -9.62924636     -10.15229056      -2.18967102
H      -11.37516690     -10.78754226      -3.83936816
H       -9.68489189      -8.03615705      -6.71324913
C      -11.63717515      -9.84044133      -6.32560338
C      -12.47968030     -10.16222536      -7.12627568
Br     -13.84193985     -10.68252292      -8.42089506
C       -0.86699549       0.86699549       0.86699549
C       -0.47970609       2.06911219       1.46991747
N       -1.47693727       2.61355475       2.17636902
N       -2.48933622       1.72563405       2.03876668
C       -2.17158350       0.66620096       1.23019061
C       -3.77225010       1.96977020       2.68595453
C       -3.80490208       1.37043669       4.04540365
C       -3.60176543       0.09241816       4.52638572
C       -3.75913535       0.16200391       5.92961885
C       -4.06604639       1.47370202       6.23443236
O       -4.11356938       2.21174958       5.07796772
C       -4.32863650       2.11334273       7.51254609
O       -4.25785943       1.49176394       8.56788390
N       -4.67565363       3.43762716       7.37296573
C       -5.01494976       4.22751516       8.43178639
N       -4.99555186       3.94998614       9.70693468
C       -5.45979450       5.03492314      10.42568207
C       -5.58620210       5.10321800      11.82784796
C       -6.09867213       6.25996583      12.42461621
C       -6.48062308       7.34051304      11.63586110
C       -6.35557254       7.30959579      10.24371744
C       -5.83737063       6.14146469       9.65967861
S       -5.55201424       5.78551827       7.99555287
H        0.47446141       2.57806202       1.42784877
H       -2.87877415      -0.11882289       1.00416354
H       -4.55110333       1.53146383       2.05286425
H       -3.92630368       3.05393574       2.71447555
H       -3.35146032      -0.78208687       3.94085682
H       -3.66140856      -0.63973629       6.65020658
H       -4.72858415       3.83308682       6.44525227
H       -5.28880640       4.25076593      12.43163562
H       -6.19683207       6.29834458      13.50690067
H       -6.65154312       8.15366064       9.62909430
C       -7.02002036       8.51809868      12.26510083
C       -7.47176558       9.50432666      12.79208910
Br      -8.20219939      11.09897388      13.64418457
C        0.86699549      -0.86699549       0.86699549
C        2.19888023      -0.60910454       1.21075098
N        2.70055361      -1.56368835       2.00261908
N        1.68012000      -2.44395180       2.12966515
C        0.54093719      -2.04667650       1.48036138
C        1.84708199      -3.64991133       2.93098151
C        2.34480371      -4.77649396       2.09944475
C        1.88283081      -5.38707872       0.95065979
C        2.81352084      -6.40310037       0.63413689
C        3.78793384      -6.37368694       1.61255999
O        3.49134718      -5.38952250       2.52241700
C        4.97951315      -7.18664365       1.78836851
O        5.29387224      -8.04913877       0.97449627
N        5.65225153      -6.88397042       2.95002458
C        6.77188041      -7.55206828       3.35030262
N        7.44490161      -8.48051330       2.72705778
C        8.49226177      -8.90728613       3.52085181
C        9.43170068      -9.90235662       3.18321075
C       10.42935533     -10.25618660       4.09771223
C       10.49478942      -9.62591562       5.33629218
C        9.58647203      -8.62596389       5.69644985
C        8.59164835      -8.28057581       4.76628978
S        7.33880930      -7.10088126       4.89339482
H        2.82766521       0.22556913       0.92935329
H       -0.36829442      -2.63001315       1.50239607
H        0.87301581      -3.89453067       3.36788492
H        2.53651783      -3.41035946       3.74783767
H        0.99318507      -5.12167602       0.39536918
H        2.79344207      -7.08480873      -0.20637195
H        5.27851445      -6.16989499       3.55851380
H        9.36644065     -10.38991092       2.21485637
H       11.14473622     -11.02942048       3.82792061
H        9.63938964      -8.13304055       6.66186787
C       11.51901892     -10.01239353       6.27180742
C       12.37681112     -10.33606878       7.05530144
Br      13.76378855     -10.85942428       8.32214500
