166
Properties=species:S:1:pos:R:3 pbc="F F F"
C        1.77689952       1.77689952      -1.77689952
C        1.34631538       2.88137378      -2.52075866
N        2.35506605       3.45437662      -3.18713044
N        3.42240682       2.68029518      -2.88074702
C        3.12216281       1.66888771      -2.00663662
C        4.73468863       2.98726733      -3.43573095
C        4.94579085       2.27944159      -4.72522205
C        4.89879958       0.95154180      -5.09994001
C        5.18043895       0.91516287      -6.48486835
C        5.40112034       2.21891245      -6.88386005
O        5.27668958       3.05446333      -5.80184583
C        5.72659354       2.76855065      -8.18909319
O        5.80850905       2.05500597      -9.18370433
N        5.94433360       4.12659360      -8.14503139
C        6.31247713       4.85122858      -9.24025767
N        6.43649656       4.46494450     -10.48074370
C        6.87144366       5.52306894     -11.25559918
C        7.12238170       5.48259939     -12.64199903
C        7.58758641       6.62691751     -13.29846231
C        7.80001139       7.80205309     -12.58464481
C        7.54815825       7.87886692     -11.21157267
C        7.07943561       6.72163054     -10.56715986
S        6.67091529       6.48430979      -8.90757237
H        0.35234625       3.30039104      -2.60842416
H        3.86966737       0.97584009      -1.64831941
H        5.48544204       2.67970218      -2.69999925
H        4.79733906       4.07465731      -3.55243067
H        4.67052576       0.11078911      -4.45862748
H        5.21967843       0.04905102      -7.13286147
H        5.87603697       4.60324828      -7.25735006
H        6.95696394       4.55747520     -13.18648087
H        7.78308988       6.58151596     -14.36718354
H        7.71186513       8.79646596     -10.65567904
C        8.29318431       8.96678356     -13.27296407
C        8.70621663       9.94224534     -13.84943144
Br       9.37405496      11.51948452     -14.78153043
C       -1.77689952      -1.77689952      -1.77689952
C       -3.08557430      -1.48501634      -2.17785718
N       -3.59355431      -2.44960097      -2.95341782
N       -2.60206278      -3.36926832      -3.01211792
C       -1.47270015      -2.98890456      -2.33608243
C       -2.78459603      -4.59702637      -3.77606450
C       -3.35201774      -5.67432643      -2.92411032
C       -2.95332228      -6.25848700      -1.73847212
C       -3.93100457      -7.22891632      -1.42054928
C       -4.86866947      -7.20093872      -2.43428465
O       -4.50456253      -6.26165354      -3.36678267
C       -6.08217903      -7.97733924      -2.62471911
O       -6.45622158      -8.79798644      -1.79301133
N       -6.70214512      -7.69374870      -3.82006478
C       -7.83061658      -8.33619373      -4.23715308
N       -8.55855870      -9.21703906      -3.60658700
C       -9.59220878      -9.63536223      -4.42254078
C      -10.57860767     -10.58378938      -4.08458308
C      -11.55570922     -10.93541408      -5.02184294
C      -11.55449816     -10.34881851      -6.28339262
C      -10.59821060      -9.39524259      -6.64514466
C       -9.62479515      -9.05137830      -5.69205256
S       -8.32607320      -7.92191286      -5.81481139
H       -3.69301341      -0.61903068      -1.94911735
H       -0.58513418      -3.60428467      -2.30440802
H       -1.80533038      -4.89153459      -4.16827850
H       -3.43567104      -4.36331465      -4.62544135
H       -2.07467755      -6.00447543      -1.16078936
H       -3.96538323      -7.87980410      -0.55640360
H       -6.28143930      -7.01592980      -4.43926621
H      -10.56528076     -11.03769992      -3.09793933
H      -12.30786099     -11.67264688      -4.75128152
H      -10.59911846      -8.93629706      -7.62859462
C      -12.55859168     -10.73288054      -7.24145972
C      -13.39952000     -11.05453249      -8.04384091
Br     -14.75922998     -11.57461650      -9.34122343
C       -1.77689952       1.77689952       1.77689952
C       -1.38421731       2.96983227       2.39439824
N       -2.38290464       3.51697055       3.09669791
N       -3.40206411       2.63972040       2.94166451
C       -3.08656269       1.58483567       2.12628878
C       -4.68860805       2.88975429       3.57932457
C       -4.73927400       2.27834791       4.93283258
C       -4.55227126       0.99416756       5.40384257
C       -4.72193496       1.05237425       6.80616096
C       -5.01964349       2.36400683       7.12024252
O       -5.04975025       3.11299990       5.97024859
C       -5.28815448       2.99433446       8.40174844
O       -5.23279838       2.36251008       9.45191088
N       -5.62175173       4.32298372       8.27122315
C       -5.96356640       5.10625770       9.33413928
N       -5.95846820       4.81691905      10.60679751
C       -6.41938554       5.89947770      11.33124854
C       -6.55809148       5.95611778      12.73277086
C       -7.06545074       7.11204085      13.33547464
C       -7.43021867       8.20322874      12.55326188
C       -7.29262050       8.18388404      11.16209331
C       -6.77975130       7.01640944      10.57206527
S       -6.48232268       6.67307011       8.90740466
H       -0.42509072       3.47032270       2.36574803
H       -3.79878357       0.80846669       1.88657662
H       -5.46556203       2.46445486       2.93512659
H       -4.83300307       3.97498870       3.61643526
H       -4.30457895       0.12277890       4.81258449
H       -4.63819034       0.24321450       7.52018609
H       -5.66250655       4.72737701       7.34675175
H       -6.27408093       5.09547622      13.33136286
H       -7.17323433       7.14143033      14.41712473
H       -7.57518276       9.03622496      10.55260241
C       -7.96461196       9.37993947      13.18838051
C       -8.41216635      10.36543470      13.72029236
Br      -9.13582393      11.95889715      14.58034883
C        1.77689952      -1.77689952       1.77689952
C        3.10496930      -1.51286876       2.13060976
N        3.60767533      -2.46925626       2.91964152
N        2.59201426      -3.35664752       3.03478725
C        1.45443250      -2.96241792       2.38083672
C        2.76154086      -4.56654792       3.82959812
C        3.27150077      -5.68476278       2.99419095
C        2.82054376      -6.29099473       1.83874290
C        3.75954875      -7.29918484       1.52173658
C        4.72763617      -7.26983588       2.50642080
O        4.41920881      -6.29327066       3.42051927
C        5.92317481      -8.07643187       2.68463071
O        6.24801154      -8.93182412       1.86738369
N        6.58674138      -7.77686555       3.85235167
C        7.70802309      -8.44046604       4.25547425
N        8.39073280      -9.36076497       3.63068698
C        9.43577941      -9.78597058       4.42836179
C       10.38353315     -10.77302323       4.09042374
C       11.37766546     -11.12635651       5.00894427
C       11.43141554     -10.50347607       6.25181768
C       10.51461101      -9.51148959       6.61249725
C        9.52346022      -9.16648194       5.67828385
S        8.26247299      -7.99544582       5.80487864
H        3.73024598      -0.67253958       1.85837589
H        0.54876039      -3.55154128       2.39352520
H        1.78632304      -4.81997558       4.25884486
H        3.44435108      -4.32783219       4.65224377
H        1.93273061      -6.02766619       1.27954555
H        3.74899214      -7.97571625       0.67688253
H        6.20474161      -7.06896844       4.46292526
H       10.32737586     -11.25488757       3.11865658
H       12.09955439     -11.89340463       4.73883037
H       10.55841099      -9.02431497       7.58128417
C       12.45219550     -10.88942213       7.19131431
C       13.30709871     -11.21265195       7.97814274
Br      14.68940490     -11.73528724       9.25037776
C       -0.00445707       0.01189536      -1.78238275
H       -0.66409135       0.67374010      -2.43557963
H        0.65740317      -0.63156657      -2.45157240
C       -0.90989263      -0.90692880      -0.91072765
C        0.90977584       0.90977584      -0.90977584
C       -0.00465871       1.77757030       0.00794375
H       -0.66225468       2.44313916      -0.64384735
H        0.64322798       2.43503045       0.67728295
C       -1.78241447       0.00034974      -0.00472694
H       -2.45427497      -0.65498947       0.64260836
H       -2.43311707       0.67328779      -0.65473579
C       -0.91132561       0.90220522       0.91563759
C       -0.01476271      -0.02253852       1.78660255
H       -0.67934791      -0.69751639       2.42135241
H        0.63392994       0.61504881       2.47327442
C        0.01484550      -1.77751727      -0.01636693
H        0.67870853      -2.42144646      -0.68295456
H       -0.62264859      -2.45592969       0.64226336
C        1.78714474       0.01002794       0.00389507
H        2.44202412       0.67113390       0.66197326
H        2.45385902      -0.65136977      -0.64189061
C        0.91606151      -0.90478549       0.90901405
