150
Properties=species:S:1:pos:R:3 pbc="F F F"
C        1.77689512       1.77689512      -1.77689512
C        2.82885995       1.33246165      -2.58552476
N        3.42477232       2.34590196      -3.22353399
N        2.72557997       3.43044811      -2.82445853
C        3.10544207       4.75081859      -3.29264200
C        3.15108629       4.85132829      -4.81360705
C        3.48834226       6.26381372      -5.23768419
O        3.50050869       7.19428997      -4.42389810
N        3.74784700       6.55870967      -6.54109685
C        3.81338296       5.68063796      -7.58230044
N        3.66908219       4.38406061      -7.57600039
C        3.84545302       3.89339336      -8.85843703
C        3.79246202       2.53741464      -9.24000427
C        3.96692319       2.18567548     -10.58325301
C        4.19200363       3.17095735     -11.53942834
C        4.26438130       4.52264497     -11.19151171
C        4.09196810       4.85935322      -9.83851018
S        4.13762103       6.41076586      -9.08695740
C        1.72487170       3.13523698      -1.94087536
H        3.19596331       0.32625140      -2.73831783
H        4.08865627       4.96616153      -2.85709368
H        2.39094645       5.46748246      -2.87066752
H        2.17729014       4.58171716      -5.23975837
H        3.91192016       4.16222158      -5.19071715
H        3.93417041       7.53052951      -6.74304305
H        3.61502944       1.77536507      -8.48651559
H        3.92087061       1.13669635     -10.86671869
H        4.44563945       5.29094604     -11.93657244
H        1.08896802       3.89720945      -1.51363485
C        4.35278864       2.79316993     -12.91965471
C        4.48744609       2.47677296     -14.07559430
Br       4.70517580       1.96518582     -15.94465084
C       -1.77689512      -1.77689512      -1.77689512
C       -2.55018417      -2.85774366      -1.33891853
N       -3.19806836      -3.44498524      -2.35115467
N       -2.84111412      -2.71160129      -3.42777120
C       -3.33154517      -3.07177768      -4.74557981
C       -4.85300053      -3.15112596      -4.81189514
C       -5.30251983      -3.46554090      -6.22177945
O       -4.51095726      -3.43686151      -7.17087800
N       -6.60619809      -3.74897340      -6.49248203
C       -7.62449621      -3.85949022      -5.59233494
N       -7.59080400      -3.74514439      -4.29319480
C       -8.85682002      -3.96318279      -3.77728061
C       -9.20725939      -3.95066709      -2.41195445
C      -10.53739181      -4.16502133      -2.03343853
C      -11.51118722      -4.38982932      -3.00137278
C      -11.19382932      -4.42261815      -4.36209052
C       -9.85354571      -4.21042762      -4.72585818
S       -9.13812699      -4.20231255      -6.29490476
C       -1.97419143      -1.69733233      -3.12946027
H       -2.67053859      -3.25156852      -0.33842543
H       -2.87857266      -4.03913981      -4.99419902
H       -2.94333769      -2.33107511      -5.45468363
H       -5.29507660      -2.19421064      -4.50947843
H       -5.19594849      -3.93643959      -4.13247080
H       -6.82675703      -3.91747731      -7.46350864
H       -8.44022794      -3.77311634      -1.66356582
H      -10.79690070      -4.15000538      -0.97737958
H      -11.95249706      -4.60364780      -5.11701307
H       -1.57997495      -1.03400449      -3.88583288
C      -12.87797616      -4.59199473      -2.59564239
C      -14.02266189      -4.76130826      -2.25584319
Br     -15.87352191      -5.03507392      -1.70641662
C       -1.77689512       1.77689512       1.77689512
C       -2.40482995       1.37946521       2.96255120
N       -3.12520467       2.37148006       3.49752355
N       -2.92906837       3.40323629       2.64818195
C       -3.59084008       4.67324927       2.88481331
C       -3.30254442       5.24439619       4.26908102
C       -3.96546427       6.59475223       4.42962367
O       -4.47028860       7.18222256       3.46618561
N       -3.98757469       7.22294925       5.63712957
C       -3.51662214       6.73822990       6.82146933
N       -2.96825703       5.58265821       7.07822796
C       -2.66615091       5.50417301       8.42695949
C       -2.08986950       4.39735641       9.08265503
C       -1.81627230       4.46620223      10.45337715
C       -2.11198911       5.62328707      11.16711314
C       -2.69663052       6.73239134      10.54951612
C       -2.96958666       6.64614440       9.17410044
S       -3.69027729       7.81458706       8.13047995
C       -2.12770242       3.08663825       1.58664337
H       -2.38063420       0.41929450       3.46060383
H       -4.66483916       4.49591846       2.75115387
H       -3.26763705       5.36422004       2.09723933
H       -2.22193279       5.36673451       4.41009837
H       -3.68777220       4.55317786       5.02390883
H       -4.42320107       8.13398261       5.65055929
H       -1.86140991       3.49873269       8.51676749
H       -1.36862006       3.60740647      10.94825912
H       -2.93261750       7.63311614      11.10742429
H       -1.89235589       3.79869395       0.80876248
C       -1.80865810       5.68343806      12.57351712
C       -1.55461838       5.73381452      13.75138045
Br      -1.14385764       5.81526898      15.65588584
C        1.77689512      -1.77689512       1.77689512
C        1.37986673      -2.96328758       2.40369205
N        2.37174813      -3.49806487       3.12439527
N        3.40303409      -2.64784143       2.92961109
C        4.67274110      -2.88403601       3.59212554
C        5.24509010      -4.26768540       3.30324614
C        6.59508459      -4.42773442       3.96702117
O        7.18149924      -3.46423774       4.47295979
N        7.22413356      -5.63480427       3.98871569
C        6.74060432      -6.81915306       3.51656400
N        5.58561179      -7.07634752       2.96718388
C        5.50831338      -8.42491754       2.66405250
C        4.40238279      -9.08099360       2.08650454
C        4.47241065     -10.45146884       1.81197218
C        5.62979559     -11.16458577       2.10800796
C        6.73803522     -10.54661257       2.69389019
C        6.65060334      -9.17145581       2.96777235
S        7.81777728      -8.12751454       3.69005247
C        3.08624875      -1.58595470       2.12878058
H        0.42007198      -3.46201240       2.37844816
H        4.49454267      -2.75127622       4.66609260
H        5.36337748      -2.09573365       3.26998530
H        5.36830610      -4.40783786       2.22262171
H        4.55413805      -5.02328639       3.68743445
H        8.13486312      -5.64789265       4.42498720
H        3.50351683      -8.51558772       1.85780555
H        3.61429276     -10.94664572       1.36334718
H        7.63899112     -11.10404300       2.93012381
H        3.79791390      -0.80739343       1.89450499
C        5.69117564     -12.57072772       1.80370992
C        5.74258142     -13.74837161       1.54886032
Br       5.82570023     -15.65252217       1.13679006
C       -0.00445707       0.01189536      -1.78238275
H       -0.66409135       0.67374010      -2.43557963
H        0.65740317      -0.63156657      -2.45157240
C       -0.90989263      -0.90692880      -0.91072765
C        0.90977584       0.90977584      -0.90977584
C       -0.00465871       1.77757030       0.00794375
H       -0.66225468       2.44313916      -0.64384735
H        0.64322798       2.43503045       0.67728295
C       -1.78241447       0.00034974      -0.00472694
H       -2.45427497      -0.65498947       0.64260836
H       -2.43311707       0.67328779      -0.65473579
C       -0.91132561       0.90220522       0.91563759
C       -0.01476271      -0.02253852       1.78660255
H       -0.67934791      -0.69751639       2.42135241
H        0.63392994       0.61504881       2.47327442
C        0.01484550      -1.77751727      -0.01636693
H        0.67870853      -2.42144646      -0.68295456
H       -0.62264859      -2.45592969       0.64226336
C        1.78714474       0.01002794       0.00389507
H        2.44202412       0.67113390       0.66197326
H        2.45385902      -0.65136977      -0.64189061
C        0.91606151      -0.90478549       0.90901405
