129
Properties=species:S:1:pos:R:3 pbc="F F F"
C        0.00000000       0.00000000       0.00000000
C        0.86699110       0.86699110      -0.86699110
C        1.91895592       0.42255762      -1.67562074
N        2.51486830       1.43599794      -2.31362996
N        1.81567595       2.52054409      -1.91455450
C        2.19553804       3.84091456      -2.38273797
C        2.24118227       3.94142426      -3.90370303
C        2.57843824       5.35390969      -4.32778017
O        2.59060467       6.28438595      -3.51399408
N        2.83794297       5.64880565      -5.63119282
C        2.90347894       4.77073394      -6.67239642
N        2.75917817       3.47415659      -6.66609636
C        2.93554900       2.98348934      -7.94853301
C        2.88255800       1.62751061      -8.33010025
C        3.05701916       1.27577145      -9.67334899
C        3.28209961       2.26105333     -10.62952431
C        3.35447728       3.61274095     -10.28160769
C        3.18206408       3.94944920      -8.92860616
S        3.22771701       5.50086184      -8.17705337
C        0.81496767       2.22533295      -1.03097134
H        2.28605929      -0.58365262      -1.82841380
H        3.17875225       4.05625751      -1.94718966
H        1.48104242       4.55757844      -1.96076349
H        1.26738612       3.67181313      -4.32985434
H        3.00201613       3.25231756      -4.28081313
H        3.02426638       6.62062549      -5.83313903
H        2.70512541       0.86546105      -7.57661156
H        3.01096659       0.22679232      -9.95681467
H        3.53573543       4.38104201     -11.02666842
H        0.17906400       2.98730542      -0.60373082
C        3.44288462       1.88326590     -12.00975068
C        3.57754207       1.56686893     -13.16569027
Br       3.79527177       1.05528179     -15.03474682
C       -0.86699110      -0.86699110      -0.86699110
C       -1.65131898      -1.93896857      -0.42684673
N       -2.29611566      -2.52887690      -1.43950363
N       -1.92600579      -1.80599279      -2.51877596
C       -2.40948013      -2.17222449      -3.83748596
C       -3.93095357      -2.24101173      -3.91434426
C       -4.37251558      -2.56245442      -5.32515810
O       -3.57389749      -2.54645935      -6.26862786
N       -5.67623210      -2.83838966      -5.60331968
C       -6.70181672      -2.93493019      -4.70986239
N       -6.67671859      -2.81133781      -3.41137471
C       -7.94800550      -3.01640533      -2.90316051
C       -8.30824332      -2.99136609      -1.54055945
C       -9.64261916      -3.19328876      -1.17023168
C      -10.61098177      -3.41809364      -2.14360184
C      -10.28400531      -3.46313116      -3.50168944
C       -8.93960167      -3.26333794      -3.85717982
S       -8.21277459      -3.27188553      -5.42097210
C       -1.05387939      -0.79588838      -2.22150419
H       -1.78180685      -2.32458517       0.57557156
H       -1.96179909      -3.14464012      -4.07576020
H       -2.01073232      -1.43956232      -4.54908971
H       -4.36820554      -1.27872816      -3.62211990
H       -4.28455499      -3.01882803      -3.23176379
H       -5.89096415      -3.01238250      -6.57468425
H       -7.54538587      -2.81392035      -0.78789181
H       -9.90966861      -3.16867014      -0.11623483
H      -11.03847751      -3.64416408      -4.26080427
H       -0.64934548      -0.14098599      -2.97976877
C      -11.98212058      -3.60736315      -1.74641748
C      -13.13044933      -3.76587637      -1.41377557
Br     -14.98719980      -4.02217883      -0.87592175
C       -0.86699110       0.86699110       0.86699110
C       -0.80916119       0.94506162       2.26291148
N       -1.72285020       1.79225783       2.74938817
N       -2.34339177       2.26194092       1.64544185
C       -3.44111317       3.20267903       1.77539838
C       -3.06593698       4.44662512       2.57374746
C       -4.22833430       5.41387887       2.61791493
O       -5.22850452       5.25047899       1.91000119
N       -4.18735502       6.51948798       3.41109844
C       -3.19771154       6.86608477       4.28281299
N       -2.09642787       6.22981904       4.57318421
C       -1.39585038       6.93497543       5.53674553
C       -0.17305552       6.54648054       6.12063280
C        0.43751235       7.37295793       7.07069402
C       -0.16017970       8.57441718       7.43808037
C       -1.37909976       8.98125004       6.88847612
C       -1.98188905       8.13855122       5.93967917
S       -3.47224193       8.33802000       5.09537030
C       -1.86515538       1.72229216       0.48382442
H       -0.15491930       0.42552035       2.95038081
H       -4.26206053       2.66031320       2.25982569
H       -3.76920948       3.46702521       0.76314966
H       -2.20983735       4.95025406       2.10896219
H       -2.79799251       4.14650782       3.59064648
H       -4.99152077       7.12814936       3.35836077
H        0.28657581       5.60722519       5.82654864
H        1.38241494       7.06472583       7.51226270
H       -1.84833646       9.91588219       7.17922721
H       -2.27184798       1.98137516      -0.48312290
C        0.48981517       9.42092085       8.40479553
C        1.03418588      10.12986767       9.21441948
Br       1.91438727      11.27617473      10.52351292
C        0.86699110      -0.86699110       0.86699110
C        0.44914455      -2.00943382       1.55855592
N        1.44805978      -2.55591591       2.26052051
N        2.50368389      -1.75829905       1.98879160
C        3.78954391      -2.02071873       2.60892794
C        4.29302209      -3.43770380       2.35558367
C        5.66215541      -3.62742831       2.97054438
O        6.30765847      -2.66980333       3.41152290
N        6.24239853      -4.85799715       3.01754576
C        5.69212414      -6.03905920       2.61542595
N        4.50564995      -6.26945015       2.12433103
C        4.36139758      -7.62470445       1.88146931
C        3.20664235      -8.25649652       1.37702999
C        3.20978472      -9.63865396       1.15770092
C        4.34889884     -10.38724048       1.43653793
C        5.50477353      -9.79324773       1.95080465
C        5.48441803      -8.40571195       2.16998946
S        6.72202426      -7.38345123       2.80015673
C        2.19659951      -0.71718497       1.15748749
H       -0.53018381      -2.46801885       1.59298542
H        3.66210528      -1.83741397       3.68268017
H        4.49725139      -1.27574362       2.22638935
H        4.36499396      -3.62634774       1.27771190
H        3.58892352      -4.14751890       2.79870439
H        7.16937976      -4.89173044       3.41692070
H        2.32248357      -7.66351445       1.16120000
H        2.31432172     -10.11503168       0.76522018
H        6.39165660     -10.37805197       2.17373729
H        2.92859781       0.02072369       0.86222612
C        4.34072037     -11.80584063       1.18934020
C        4.33387090     -12.99391826       0.98231211
Br       4.32279589     -14.91493930       0.64756519
