142
Properties=species:S:1:pos:R:3 pbc="F F F"
C        1.77689512       1.77689512      -1.77689512
C        2.82885995       1.33246165      -2.58552476
N        3.42477232       2.34590196      -3.22353399
N        2.72557997       3.43044811      -2.82445853
C        3.10544207       4.75081859      -3.29264200
C        3.15108629       4.85132829      -4.81360705
C        3.48834226       6.26381372      -5.23768419
O        3.50050869       7.19428997      -4.42389810
N        3.74784700       6.55870967      -6.54109685
C        3.81338296       5.68063796      -7.58230044
N        3.66908219       4.38406061      -7.57600039
C        3.84545302       3.89339336      -8.85843703
C        3.79246202       2.53741464      -9.24000427
C        3.96692319       2.18567548     -10.58325301
C        4.19200363       3.17095735     -11.53942834
Br       4.40333870       2.67439533     -13.35359142
C        4.26438130       4.52264497     -11.19151171
C        4.09196810       4.85935322      -9.83851018
S        4.13762103       6.41076586      -9.08695740
C        1.72487170       3.13523698      -1.94087536
H        3.19596331       0.32625140      -2.73831783
H        4.08865627       4.96616153      -2.85709368
H        2.39094645       5.46748246      -2.87066752
H        2.17729014       4.58171716      -5.23975837
H        3.91192016       4.16222158      -5.19071715
H        3.93417041       7.53052951      -6.74304305
H        3.61502944       1.77536507      -8.48651559
H        3.92087061       1.13669635     -10.86671869
H        4.44563945       5.29094604     -11.93657244
H        1.08896802       3.89720945      -1.51363485
C       -1.77689512      -1.77689512      -1.77689512
C       -2.48930264      -2.90429557      -1.35324815
N       -3.15426252      -3.47748413      -2.36246162
N       -2.86984589      -2.68902406      -3.42161666
C       -3.39876330      -3.01727686      -4.73286250
C       -4.91742601      -3.15539641      -4.74319921
C       -5.41099306      -3.43273129      -6.14611583
O       -4.66013425      -3.33526073      -7.12330179
N       -6.71255382      -3.75787891      -6.37722079
C       -7.68859181      -3.94431820      -5.44341137
N       -7.60690383      -3.87923828      -4.14300108
C       -8.84161934      -4.16811837      -3.58754570
C       -9.13683102      -4.22279868      -2.21025124
C      -10.44125652      -4.50525550      -1.78933966
C      -11.44389938      -4.73146803      -2.72702191
Br     -13.20571248      -5.09006788      -2.13554509
C      -11.18074376      -4.69854454      -4.09924969
C       -9.86550314      -4.41841057      -4.50591780
S       -9.21491762      -4.32047497      -6.09995169
C       -2.03161839      -1.65290662      -3.11645903
H       -2.55375241      -3.34121484      -0.36556528
H       -2.91898343      -3.95516329      -5.03776477
H       -3.06857818      -2.23451800      -5.42600024
H       -5.38374734      -2.22958916      -4.38542917
H       -5.20188955      -3.97971513      -4.08325421
H       -6.96545513      -3.89732287      -7.34496496
H       -8.34766240      -4.04359770      -1.48564999
H      -10.65827295      -4.54175634      -0.72425637
H      -11.96169071      -4.88062730      -4.83083992
H       -1.69433894      -0.94532260      -3.86015078
C       -1.77689512       1.77689512       1.77689512
C       -2.50735218       1.34858869       2.89090548
N       -3.19802375       2.35116474       3.44501978
N       -2.88010645       3.41896792       2.68141224
C       -3.47469328       4.71326131       2.96094806
C       -3.24500288       5.17493213       4.39608662
C       -3.83051225       6.55411401       4.60521391
O       -4.23094310       7.23409669       3.65365699
N       -3.89434936       7.10473504       5.84856912
C       -3.53606567       6.51537827       7.02487742
N       -3.08048400       5.31148795       7.23717124
C       -2.87573123       5.12762864       8.59392355
C       -2.41621342       3.94516619       9.20850133
C       -2.23201387       3.90854040      10.59529741
C       -2.50148248       5.03549022      11.36541662
Br      -2.22434761       4.97036404      13.23661380
C       -2.97175290       6.21838543      10.78839965
C       -3.15609775       6.23793834       9.39579542
S       -3.72930703       7.51605188       8.38998538
C       -2.03050714       3.11674589       1.65373100
H       -2.57762898       0.35940159       3.32350197
H       -4.54627337       4.61768289       2.74795522
H       -3.05598070       5.42925226       2.24386347
H       -2.17081381       5.21484199       4.61310986
H       -3.72327810       4.46495501       5.07662578
H       -4.27139138       8.04043252       5.89591907
H       -2.20735158       3.07075983       8.59879869
H       -1.87402484       2.99189371      11.05836711
H       -3.18743801       7.09589696      11.38982296
H       -1.69859519       3.85905203       0.94216510
C        1.77689512      -1.77689512       1.77689512
C        1.39724473      -2.99215654       2.35744509
N        2.38341067      -3.51931929       3.09147831
N        3.39431949      -2.63451172       2.95165540
C        4.65093356      -2.85366514       3.64430396
C        5.27190346      -4.21121638       3.33290180
C        6.60645417      -4.35202485       4.03136115
O        7.14944340      -3.38746541       4.58178796
N        7.26996491      -5.54068483       4.03700378
C        6.83532217      -6.72395771       3.51704149
N        5.70464108      -6.99782622       2.92667589
C        5.67588681      -8.33852600       2.58287061
C        4.60680286      -9.00870130       1.95437678
C        4.72507686     -10.36790927       1.64286555
C        5.89403923     -11.05598714       1.95236294
Br       6.04064554     -12.88853560       1.50214431
C        6.96631568     -10.42406221       2.58816009
C        6.83053289      -9.06065629       2.89864232
S        7.94521598      -8.00545932       3.68466899
C        3.06942172      -1.55897332       2.17258899
H        0.45370121      -3.51722189       2.28960943
H        4.43818910      -2.75781341       4.71590898
H        5.32695814      -2.03673138       3.36540690
H        5.43012095      -4.31583387       2.25281085
H        4.59282030      -4.99731627       3.67472231
H        8.16780643      -5.54053352       4.49940302
H        3.69856918      -8.46278720       1.71555371
H        3.89515346     -10.87402332       1.15510888
H        7.87618626     -10.96217001       2.83480166
H        3.76422651      -0.75376229       1.98182351
C       -0.00445707       0.01189536      -1.78238275
H       -0.66409135       0.67374010      -2.43557963
H        0.65740317      -0.63156657      -2.45157240
C       -0.90989263      -0.90692880      -0.91072765
C        0.90977584       0.90977584      -0.90977584
C       -0.00465871       1.77757030       0.00794375
H       -0.66225468       2.44313916      -0.64384735
H        0.64322798       2.43503045       0.67728295
C       -1.78241447       0.00034974      -0.00472694
H       -2.45427497      -0.65498947       0.64260836
H       -2.43311707       0.67328779      -0.65473579
C       -0.91132561       0.90220522       0.91563759
C       -0.01476271      -0.02253852       1.78660255
H       -0.67934791      -0.69751639       2.42135241
H        0.63392994       0.61504881       2.47327442
C        0.01484550      -1.77751727      -0.01636693
H        0.67870853      -2.42144646      -0.68295456
H       -0.62264859      -2.45592969       0.64226336
C        1.78714474       0.01002794       0.00389507
H        2.44202412       0.67113390       0.66197326
H        2.45385902      -0.65136977      -0.64189061
C        0.91606151      -0.90478549       0.90901405
