134
Properties=species:S:1:pos:R:3 pbc="F F F"
C       -5.84594500       0.14693624      -3.59733312
C       -5.35723226       1.38093413      -4.33331520
N       -3.96783538       1.26234734      -4.73208825
N       -3.66402104       0.67122281      -5.89931854
C       -2.33498583       0.77025638      -5.96492853
C       -1.77377327       1.40427167      -4.83204833
C       -2.87129287       1.71062424      -4.04737247
C       -0.36228992       1.67184355      -4.61579528
O        0.46536366       1.41927829      -5.48430643
N       -0.04577199       2.13932244      -3.34730103
C        1.29818835       2.40027890      -2.96924985
C        1.79874194       1.79874194      -1.79874194
C        3.13478265       1.95686968      -1.42621577
C        3.96856293       2.74476035      -2.20700751
F        5.25128058       2.89513391      -1.85373874
C        3.48920430       3.40529255      -3.32916295
C        2.15154966       3.24858218      -3.70443277
Br       1.53594878       4.38468770      -5.10574606
H       -6.90030663       0.25818764      -3.32670745
H       -5.27166571      -0.01593552      -2.67923675
H       -5.74480717      -0.75017552      -4.21745532
H       -5.44841009       2.27027381      -3.70076482
H       -5.94893524       1.55175896      -5.23979042
H       -1.81611565       0.37932052      -6.83224258
H       -2.97279691       2.21610609      -3.09759001
H       -0.65298945       1.78187765      -2.61892897
H        3.54176727       1.47188621      -0.54424563
H        4.16029029       4.05168839      -3.88732652
C       -3.05110780      -0.92736494       6.08014837
C       -4.29407573      -1.43699820       5.37405685
N       -3.97107797      -2.34965368       4.29413145
N       -3.80997866      -3.65640261       4.55986096
C       -3.56927709      -4.19308402       3.36216203
C       -3.55142969      -3.23397728       2.32286024
C       -3.81658265      -2.04036911       2.97024793
C       -3.33105504      -3.50743796       0.91314410
O       -3.21715851      -4.65850435       0.50671449
N       -3.17919926      -2.37950070       0.11784848
C       -2.90945173      -2.48571648      -1.27254889
C       -1.79874194      -1.79874194      -1.79874194
C       -1.44209299      -1.93418483      -3.14159028
C       -2.21508555      -2.73321871      -3.97202653
F       -1.87305980      -2.86752861      -5.25956482
C       -3.35406113      -3.36971884      -3.49987982
C       -3.71343726      -3.23571686      -2.15541049
Br      -5.41604265      -3.94134619      -1.66899371
H       -3.32720731      -0.25747346       6.90009231
H       -2.40533959      -0.37539969       5.38910376
H       -2.46495401      -1.75374046       6.49622184
H       -4.86597397      -0.60546147       4.94880690
H       -4.94710830      -1.96993350       6.07442767
H       -3.41443040      -5.26257768       3.28156062
H       -3.93061715      -1.02590444       2.61562239
H       -2.74725480      -1.59852995       0.59796758
H       -0.56913944      -1.43631876      -3.55244091
H       -3.96037401      -3.94732056      -4.19161064
C        5.55899111      -0.53613492       3.99345039
C        5.10339953       0.67694556       4.78347104
N        3.68337547       0.63454513       5.07543054
N        3.25367288      -0.01159972       6.17179290
C        1.93345556       0.18102884       6.15262580
C        1.50300099       0.93167051       5.03387720
C        2.67425994       1.20918358       4.35178019
C        0.13331925       1.31755474       4.74111341
O       -0.77197129       1.06773326       5.52924382
N       -0.05513835       1.89372374       3.49198939
C       -1.34609375       2.27918979       3.04243356
C       -1.79874194       1.79874194       1.79874194
C       -3.08933036       2.08093973       1.34759801
C       -3.92234734       2.87272646       2.12525699
F       -5.16185220       3.14192256       1.69637847
C       -3.48312188       3.41677804       3.32375987
C       -2.19103358       3.13568105       3.77784998
Br      -1.60414081       4.12346436       5.29877737
H        6.63568882      -0.48501732       3.80529460
H        5.04456007      -0.59213866       3.02833425
H        5.35039250      -1.46394676       4.53681188
H        5.30247506       1.59862291       4.22648069
H        5.63657624       0.74037088       5.73881950
H        1.32588985      -0.22928451       6.95062181
H        2.88064147       1.77012391       3.45141676
H        0.57832120       1.54335952       2.78277886
H       -3.46225629       1.68957279       0.40607003
H       -4.14753236       4.07110002       3.88067283
C        3.77278491       0.14000669      -5.73445385
C        4.98522070      -0.31477412      -4.94297775
N        4.66038937      -1.37960739      -4.01339655
N        4.68649206      -2.65474203      -4.43471378
C        4.38521085      -3.35380847      -3.33882024
C        4.14146021      -2.53369523      -2.21260872
C        4.32925991      -1.24961093      -2.69216700
C        3.80600865      -2.99621053      -0.87687028
O        3.78816319      -4.19323879      -0.61245359
N        3.43583529      -1.99452892       0.01048727
C        3.03366294      -2.29493439       1.33911977
C        1.79874194      -1.79874194       1.79874194
C        1.31938585      -2.13158486       3.06689739
C        2.08935906      -2.93716872       3.89380301
F        1.63021427      -3.26069739       5.10924156
C        3.34034732      -3.38700105       3.49631142
C        3.82274126      -3.05509435       2.22672900
Br       5.63985294      -3.51118165       1.87534795
H        4.05263982       0.92903975      -6.43901161
H        2.99532875       0.53288875      -5.07080448
H        3.33782673      -0.68841462      -6.30376872
H        5.40450843       0.51611672      -4.36576317
H        5.76856210      -0.68697837      -5.61292634
H        4.35200408      -4.43563100      -3.39218763
H        4.28224754      -0.27865583      -2.22000418
H        2.96718890      -1.21231533      -0.43168706
H        0.35414197      -1.78279158       3.42096556
H        3.93408419      -3.97521849       4.19000253
C       -0.00445707       0.01189536      -1.78238275
H       -0.66409135       0.67374010      -2.43557963
H        0.65740317      -0.63156657      -2.45157240
C       -0.90989263      -0.90692880      -0.91072765
C        0.90977584       0.90977584      -0.90977584
C       -0.00465871       1.77757030       0.00794375
H       -0.66225468       2.44313916      -0.64384735
H        0.64322798       2.43503045       0.67728295
C       -1.78241447       0.00034974      -0.00472694
H       -2.45427497      -0.65498947       0.64260836
H       -2.43311707       0.67328779      -0.65473579
C       -0.91132561       0.90220522       0.91563759
C       -0.01476271      -0.02253852       1.78660255
H       -0.67934791      -0.69751639       2.42135241
H        0.63392994       0.61504881       2.47327442
C        0.01484550      -1.77751727      -0.01636693
H        0.67870853      -2.42144646      -0.68295456
H       -0.62264859      -2.45592969       0.64226336
C        1.78714474       0.01002794       0.00389507
H        2.44202412       0.67113390       0.66197326
H        2.45385902      -0.65136977      -0.64189061
C        0.91606151      -0.90478549       0.90901405
