146
Properties=species:S:1:pos:R:3 pbc="F F F"
C        1.77736517       1.77736517      -1.77736517
C        1.36590770       2.92067479      -2.42226474
C        2.50167132       3.41921562      -3.10471980
C        3.54126611       2.54681168      -2.84091392
O        3.09221402       1.53433573      -2.03113679
C        4.92904414       2.56391275      -3.26950992
O        5.39184862       3.49754187      -3.91499788
N        5.62161772       1.42891537      -2.88336403
C        6.97457146       1.11560951      -3.11235858
C        7.88141305       1.97816472      -3.72697647
C        9.21693462       1.59738126      -3.90901295
C        9.66763823       0.34534461      -3.47083584
C        8.76072030      -0.52728433      -2.85964528
C        7.42491671      -0.13965775      -2.68364816
N       11.03510234      -0.00827610      -3.64929294
N       11.88752703       0.81520409      -4.32330636
C       13.06281200       0.18296771      -4.29779636
C       12.98507081      -1.02513360      -3.60723908
C       11.68395504      -1.14072866      -3.20021976
H        0.37255823       3.34793593      -2.40297820
H        2.57122813       4.30595813      -3.72083701
H        5.06575800       0.74168014      -2.38574014
H        7.59118116       2.96595498      -4.07148182
H        9.89544760       2.30315194      -4.38632388
H        9.04993315      -1.51587608      -2.51720528
H        6.74121518      -0.84040681      -2.20994181
H       13.91589256       0.64161795      -4.78085822
H       11.18551624      -1.90728017      -2.62896807
C       14.07549144      -1.93751934      -3.37890796
C       14.98871872      -2.70164240      -3.18768064
Br      16.46532998      -3.93716477      -2.87848224
C       -1.77736517      -1.77736517      -1.77736517
C       -1.32001678      -2.71911770      -2.66971276
C       -2.47096823      -3.30332779      -3.25131072
C       -3.56622819      -2.67944266      -2.68332086
O       -3.13773328      -1.73668799      -1.78326526
C       -4.98950167      -2.87843049      -2.89453465
O       -5.41400881      -3.77165105      -3.61872851
N       -5.76500314      -1.95585197      -2.21304201
C       -7.16858787      -1.85733171      -2.17661999
C       -8.03012053      -2.76503776      -2.79139595
C       -9.41854631      -2.60485468      -2.69992784
C       -9.96717017      -1.53326448      -1.98338404
C       -9.10768725      -0.61523279      -1.37016122
C       -7.71903239      -0.78111274      -1.46876199
N      -11.38194012      -1.40571597      -1.88846309
N      -12.20698897      -2.25681450      -2.56223401
C      -13.44047850      -1.85479880      -2.24829877
C      -13.42369844      -0.76990442      -1.37357343
C      -12.10334952      -0.48729788      -1.15279873
H       -0.28631106      -2.96088212      -2.87627918
H       -2.51486456      -4.08543398      -3.99772473
H       -5.23925085      -1.26347319      -1.69045424
H       -7.66062608      -3.62226600      -3.34572588
H      -10.05718098      -3.34012501      -3.18761742
H       -9.47667846       0.24326663      -0.81785052
H       -7.07523787      -0.04926136      -0.98625096
H      -14.28705678      -2.37992167      -2.67139028
H      -11.63227065       0.26093602      -0.53586951
C      -14.58070646      -0.11084183      -0.82533176
C      -15.54970068       0.44112309      -0.36617936
Br     -17.11648238       1.33360369       0.37623124
C       -1.77736517       1.77736517       1.77736517
C       -2.76044419       1.32288895       2.62551410
C       -3.30539080       2.47111160       3.24910434
C       -2.62593634       3.56250952       2.74054585
O       -1.69242076       3.13465673       1.83060904
C       -2.75789485       4.98112450       3.02344747
O       -3.51317021       5.39604452       3.89517365
N       -1.96546771       5.76567143       2.20275799
C       -1.83159375       7.16679909       2.20414672
C       -2.45067373       8.00827239       3.12760813
C       -2.25871555       9.39448981       3.07012347
C       -1.43576212       9.96039380       2.08766277
C       -0.81738129       9.12173647       1.15396349
C       -1.01684904       7.73541594       1.21664214
N       -1.24092028      11.37048690       2.06471200
N       -1.91717364      12.18338409       2.92547975
C       -1.49703985      13.41561442       2.63092180
C       -0.55227216      13.40857310       1.60633103
C       -0.39835210      12.09716783       1.24792620
H       -3.04968035       0.29248250       2.78130951
H       -4.09972085       2.51585749       3.98244493
H       -1.43133731       5.25091733       1.51092364
H       -3.08572347       7.62333663       3.91955786
H       -2.75376971      10.01642957       3.81472413
H       -0.18428632       9.50639318       0.36058285
H       -0.52752048       7.10847665       0.47475306
H       -1.89979480      14.25368820       3.18488573
H        0.23709692      11.63392746       0.51037360
C        0.11395127      14.56508345       1.06574788
C        0.67191340      15.53366087       0.61300948
Br       1.57409097      17.09976863      -0.11903021
C        1.77736517      -1.77736517       1.77736517
C        2.67815614      -2.71092298       1.31976813
C        3.27962445      -3.27584789       2.47013440
C        2.70621239      -2.65722528       3.56555404
O        1.77779170      -1.74200036       3.13789448
C        2.94195600      -2.83240568       4.98810513
O        3.82594034      -3.57054152       5.40790652
N        2.06376304      -2.10073474       5.76939934
C        2.00895354      -2.02006046       7.17352557
C        2.92387876      -2.63645651       8.02621897
C        2.80862157      -2.49936193       9.41534533
C        1.77570324      -1.73482918       9.97328627
C        0.85047805      -1.11961152       9.12299168
C        0.97121021      -1.26401185       7.73368506
N        1.69395173      -1.59449906      11.38766839
N        2.54947810      -2.26919476      12.20736462
C        2.19445285      -1.90705898      13.44206423
C        1.13575562      -1.00071861      13.43070207
C        0.81986953      -0.81042246      12.11315413
H        2.88228897      -2.95504931       0.28613408
H        4.04040121      -4.04401431       2.51360776
H        1.37143990      -1.57309269       5.24864568
H        3.75282986      -3.22715106       7.64863705
H        3.54824692      -2.99011589      10.04656060
H        0.02018223      -0.53091069       9.50016943
H        0.23469196      -0.77868728       7.09737095
H        2.73232307      -2.32078332      14.28526234
H        0.07617447      -0.18522121      11.64580846
C        0.52848841      -0.39894327      14.58944837
C        0.01990213       0.10504357      15.55989839
Br      -0.80243889       0.91994766      17.12903401
C       -0.00445707       0.01189536      -1.78238275
H       -0.66409135       0.67374010      -2.43557963
H        0.65740317      -0.63156657      -2.45157240
C       -0.90989263      -0.90692880      -0.91072765
C        0.90977584       0.90977584      -0.90977584
C       -0.00465871       1.77757030       0.00794375
H       -0.66225468       2.44313916      -0.64384735
H        0.64322798       2.43503045       0.67728295
C       -1.78241447       0.00034974      -0.00472694
H       -2.45427497      -0.65498947       0.64260836
H       -2.43311707       0.67328779      -0.65473579
C       -0.91132561       0.90220522       0.91563759
C       -0.01476271      -0.02253852       1.78660255
H       -0.67934791      -0.69751639       2.42135241
H        0.63392994       0.61504881       2.47327442
C        0.01484550      -1.77751727      -0.01636693
H        0.67870853      -2.42144646      -0.68295456
H       -0.62264859      -2.45592969       0.64226336
C        1.78714474       0.01002794       0.00389507
H        2.44202412       0.67113390       0.66197326
H        2.45385902      -0.65136977      -0.64189061
C        0.91606151      -0.90478549       0.90901405
