137
Properties=species:S:1:pos:R:3 pbc="F F F"
C        0.00000000       0.00000000       0.00000000
C        0.88126369       0.88126369      -0.88126369
C        1.99378830       1.51331342      -0.33669960
C        2.80991276       2.30223352      -1.15272753
C        2.50889885       2.47859098      -2.51628056
C        1.39258327       1.82670584      -3.05234854
C        0.58004635       1.03179343      -2.23276521
N        3.39807500       3.24673349      -3.31446127
N        4.68331204       3.42023598      -2.90920394
N        5.32854651       3.96993048      -3.92136082
N        4.47605232       4.25388464      -4.94262834
C        3.27240744       3.87681303      -4.54986330
C        2.02258058       4.25971017      -5.25711941
C        1.41337220       5.48406660      -4.67664930
N        0.65523357       5.46993291      -3.59478398
N        0.12846680       6.71822683      -3.47125431
N        0.53097878       7.50007976      -4.45616115
N        1.40423231       6.77452582      -5.20288299
C        2.07277250       7.38652755      -6.30115166
C        3.20856862       6.83192271      -6.90007318
C        3.82656505       7.47167770      -7.98271439
C        3.31911727       8.67315426      -8.46782893
Br       4.15597160       9.52580532      -9.93103324
C        2.20517370       9.25251279      -7.87050026
C        1.58942045       8.61715143      -6.78659020
H        2.24100516       1.39609617       0.71548448
H        3.67655226       2.78324547      -0.69907291
H        1.15099036       1.84158398      -4.10689134
H       -0.27543500       0.51687132      -2.66475658
H        1.27855851       3.46416441      -5.23394622
H        2.22264216       4.38192507      -6.32556439
H        3.69059527       5.93519236      -6.53455677
H        4.71519258       7.02846941      -8.42744651
H        1.80778525      10.19688935      -8.23507214
H        0.71793318       9.09847864      -6.34305414
C       -0.88126369      -0.88126369      -0.88126369
C       -2.17728026      -0.48007477      -1.18644628
C       -2.97317586      -1.28029647      -2.01140148
C       -2.48391572      -2.49675949      -2.52309518
C       -1.17369616      -2.88131664      -2.21662485
C       -0.37658692      -2.07378805      -1.39423002
N       -3.31267797      -3.24773457      -3.39885722
N       -4.32219025      -2.62703409      -4.06352763
N       -4.77640818      -3.48993632      -4.95349332
N       -4.15817599      -4.69424920      -4.82014012
C       -3.30522811      -4.57550840      -3.81834726
C       -2.63204484      -5.73333670      -3.17402862
C       -3.37899236      -6.21252655      -1.98256919
N       -3.28070247      -5.64624746      -0.79300053
N       -3.94418243      -6.45274126       0.07897575
N       -4.43895568      -7.50973832      -0.53852569
N       -4.16283478      -7.35837309      -1.86043324
C       -4.64888774      -8.31405166      -2.79751231
C       -4.70114296      -8.06632647      -4.17309509
C       -5.18355753      -9.04302804      -5.05437157
C       -5.62458543     -10.26925333      -4.56626171
Br      -6.26859325     -11.58177310      -5.76244380
C       -5.60296166     -10.52543093      -3.19979415
C       -5.12553909      -9.54960836      -2.31801463
H       -2.57756360       0.45250771      -0.79656096
H       -3.98392328      -0.93924351      -2.23570385
H       -0.69969815      -3.75426500      -2.64550254
H        0.64584506      -2.37532916      -1.17670880
H       -1.61416936      -5.49618258      -2.86631720
H       -2.49045360      -6.53482431      -3.90485372
H       -4.43321167      -7.11481519      -4.61231754
H       -5.22531114      -8.82603802      -6.11975934
H       -5.95593892     -11.47631631      -2.80749150
H       -5.12175809      -9.78407222      -1.25363566
C       -0.88126369       0.88126369       0.88126369
C       -0.49263272       2.18588980       1.16527880
C       -1.31357071       2.99598820       1.95531489
C       -2.52143765       2.50083471       2.48149803
C       -2.90466269       1.18970187       2.17727309
C       -2.08219558       0.38235100       1.38005842
N       -3.34525016       3.37953326       3.23448634
N       -3.21116405       4.72266131       3.07892661
N       -4.22520928       5.28050069       3.71412784
N       -4.96318613       4.34255526       4.36682392
C       -4.38745329       3.17630024       4.13533024
C       -4.71843664       1.93624404       4.88472948
C       -3.80609984       1.72918099       6.03880727
N       -2.60359594       1.19470457       5.92164995
N       -2.14309211       0.98954927       7.18530656
N       -3.03523818       1.37130306       8.08067845
N       -4.07557938       1.91219887       7.39386286
C       -5.16607689       2.49068175       8.10369307
C       -6.09229254       3.34777383       7.50049815
C       -7.15158262       3.88680989       8.24256463
C       -7.28700985       3.58000241       9.59308821
Br      -8.72117716       4.30741002      10.58422298
C       -6.36271094       2.74906101      10.21641480
C       -5.30191104       2.21337921       9.47787184
H        0.43950027       2.58648131       0.77463581
H       -0.98466278       4.01506208       2.15914579
H       -3.85876098       0.77133908       2.46936562
H       -2.39894018      -0.62965768       1.13691041
H       -4.67441594       1.05077803       4.25147517
H       -5.76461266       1.96240763       5.20311134
H       -6.01085768       3.67635436       6.47313236
H       -7.85505768       4.55962106       7.75642977
H       -6.45345069       2.51233486      11.27396118
H       -4.59651539       1.56524411       9.99770647
C        0.88126369      -0.88126369       0.88126369
C        0.36516900      -1.42715745       2.05147486
C        1.16966708      -2.25096994       2.84423679
C        2.50238528      -2.52064179       2.48074332
C        3.00383558      -1.97351892       1.29428315
C        2.19271871      -1.15298479       0.49890151
N        3.26196758      -3.40559331       3.29170886
N        2.62200674      -4.28937092       4.10137431
N        3.54217677      -5.11744202       4.56021902
N        4.78293796      -4.73715008       4.15247726
C        4.62720970      -3.64274230       3.42913177
C        5.75285703      -2.75947661       3.02707652
C        5.94637775      -1.64153144       3.98617891
N        5.22560008      -0.53465073       3.95969965
N        5.79872718       0.32532356       4.84454432
N        6.86293719      -0.21653695       5.40774556
N        6.94899258      -1.49033493       4.94231360
C        7.96301736      -2.35728105       5.44015330
C        7.91994271      -3.74552694       5.27509487
C        8.94666739      -4.55450018       5.77978957
C       10.01774471      -3.98269792       6.45965784
Br      11.39982962      -5.08083780       7.13214274
C       10.06648389      -2.60688373       6.65481913
C        9.03989527      -1.79805248       6.15521433
H       -0.65945953      -1.22654980       2.35452658
H        0.73750468      -2.66694074       3.75442522
H        3.98546966      -2.20903823       0.90495781
H        2.58869640      -0.74704961      -0.42955311
H        5.60674901      -2.33596427       2.03395587
H        6.66651155      -3.35012851       2.91349156
H        7.08822695      -4.25963951       4.81247794
H        8.88851324      -5.63315916       5.64943610
H       10.89355843      -2.15160453       7.19458378
H        9.11038275      -0.72380808       6.32527513
