166
Properties=species:S:1:pos:R:3 pbc="F F F"
C        1.79116771       1.79116771      -1.79116771
C        2.90369232       2.42321744      -1.24660363
C        3.71981678       3.21213754      -2.06263155
C        3.41880287       3.38849500      -3.42618459
C        2.30248730       2.73660986      -3.96225256
C        1.48995038       1.94169746      -3.14266924
N        4.30797903       4.15663751      -4.22436529
N        5.59321607       4.33014000      -3.81910797
N        6.23845054       4.87983450      -4.83126485
N        5.38595635       5.16378867      -5.85253236
C        4.18231146       4.78671706      -5.45976733
C        2.93248461       5.16961419      -6.16702344
C        2.32327623       6.39397062      -5.58655332
N        1.56513759       6.37983693      -4.50468800
N        1.03837082       7.62813086      -4.38115833
N        1.44088280       8.40998378      -5.36606518
N        2.31413633       7.68442984      -6.11278701
C        2.98267652       8.29643158      -7.21105569
C        4.11847265       7.74182673      -7.80997720
C        4.73646908       8.38158172      -8.89261842
C        4.22902130       9.58305829      -9.37773295
C        3.11507772      10.16241682      -8.78040428
C        2.49932448       9.52705545      -7.69649423
H        3.15090919       2.30600020      -0.19441954
H        4.58645628       3.69314950      -1.60897693
H        2.06089439       2.75148801      -5.01679537
H        0.63446903       1.42677534      -3.57466061
H        2.18846253       4.37406844      -6.14385025
H        3.13254618       5.29182910      -7.23546842
H        4.60049930       6.84509638      -7.44446080
H        5.62509660       7.93837344      -9.33735053
H        2.71768927      11.10679337      -9.14497616
H        1.62783720      10.00838267      -7.25295817
C        4.86696348      10.23304248     -10.49314782
C        5.40124006      10.77740423     -11.42730777
Br       6.26512011      11.65759115     -12.93776540
C       -1.79116771      -1.79116771      -1.79116771
C       -1.77914119      -1.62288425      -3.17148795
C       -2.57193792      -2.44671776      -3.97593020
C       -3.39603756      -3.43380198      -3.40364292
C       -3.38851423      -3.59886233      -2.01397316
C       -2.58803035      -2.77524600      -1.21104072
N       -4.14244414      -4.27975412      -4.26678357
N       -3.74841003      -4.43638961      -5.55766440
N       -4.46980314      -5.42306342      -6.05668333
N       -5.39662010      -5.84896421      -5.15669307
C       -5.24953457      -5.10266896      -4.07659233
C       -6.23968195      -5.06041810      -2.96902218
C       -7.21232460      -3.95065245      -3.14082313
N       -6.95168864      -2.70232016      -2.79565373
N       -8.11789440      -2.01231312      -2.91745249
N       -9.09579804      -2.80469094      -3.31644278
N       -8.54605211      -4.02755575      -3.53774532
C       -9.35116944      -5.08012501      -4.05886933
C       -8.80893644      -6.24052376      -4.62081639
C       -9.64555947      -7.25001138      -5.11509837
C      -11.02814270      -7.10271176      -5.05895807
C      -11.58599095      -5.94599290      -4.52591497
C      -10.75194010      -4.93512635      -4.03580771
H       -1.15509787      -0.86222833      -3.63400272
H       -2.54018297      -2.29367057      -5.05472917
H       -3.92436261      -4.39326926      -1.51154589
H       -2.57823855      -2.92426527      -0.13340115
H       -5.76183949      -4.94817983      -1.99636189
H       -6.74689621      -6.02608820      -2.88685929
H       -7.74596836      -6.39197058      -4.75211754
H       -9.20310176      -8.14013150      -5.55758731
H      -12.66509483      -5.81652281      -4.48784117
H      -11.22263220      -4.04249013      -3.62405571
C      -11.88191603      -8.14590841      -5.56532934
C      -12.59695119      -9.01958560      -5.98941527
Br     -13.75310257     -10.43224774      -6.67512635
C       -1.79116771       1.79116771       1.79116771
C       -2.71266581       2.65354365       1.20730393
C       -3.53239194       3.44304475       2.01914919
C       -3.42396745       3.38814668       3.42136834
C       -2.50008755       2.50689593       3.99436625
C       -1.68412374       1.71255217       3.17764117
N       -4.31523637       4.17091384       4.20283162
N       -5.48822717       4.59236755       3.66186932
N       -6.20260413       5.09527923       4.65166653
N       -5.48726170       5.10640270       5.80861299
C       -4.29846609       4.60427043       5.52605933
C       -3.13263354       4.69289532       6.44359337
C       -2.28409399       5.87513662       6.14456957
N       -1.37725129       5.88849991       5.18391132
N       -0.67653777       7.04611517       5.32500707
N       -1.11820703       7.74262257       6.35610217
N       -2.18454039       7.06728131       6.85953149
C       -2.92669935       7.62333630       7.94012813
C       -4.20463099       7.17540758       8.29023802
C       -4.89120845       7.75293884       9.36652194
C       -4.30925844       8.78677386      10.09378023
C       -3.04967724       9.26208898       9.74613260
C       -2.36451686       8.68937332       8.66898398
H       -2.80845086       2.71667848       0.12619958
H       -4.24720318       4.10762894       1.53375060
H       -2.42377665       2.34411091       5.06129020
H       -0.98141325       1.01936232       3.63512940
H       -2.50634492       3.80259691       6.39743938
H       -3.47662228       4.70129429       7.48192713
H       -4.73957529       6.42014442       7.73033677
H       -5.88860673       7.39655736       9.61565648
H       -2.59112413      10.07714820      10.30118648
H       -1.37901735       9.08555518       8.42460551
C       -5.01904660       9.37303192      11.20107525
C       -5.61349419       9.86402305      12.12843482
Br      -6.57466566      10.65791418      13.62789682
C        1.79116771      -1.79116771       1.79116771
C        1.64978712      -1.74979055       3.17393572
C        2.44442259      -2.57444192       3.97572137
C        3.39881821      -3.43420435       3.40045990
C        3.52127898      -3.47315655       2.00691419
C        2.71890890      -2.64949331       1.20591486
N        4.14455176      -4.28994797       4.25448210
N        3.66078362      -4.59458504       5.48709538
N        4.42453752      -5.55918057       5.96583180
N        5.45732564      -5.82389216       5.12105958
C        5.33335651      -4.99785776       4.09758158
C        6.40390512      -4.77395688       3.09126023
C        7.25479070      -3.60755716       3.44145231
N        6.91196211      -2.35902965       3.17867076
N        7.99699617      -1.58869105       3.46197280
N        9.00606317      -2.33018989       3.88067870
N        8.55256543      -3.60933147       3.94945629
C        9.40353379      -4.63439248       4.45223751
C        8.92365666      -5.88167693       4.86494300
C        9.80422488      -6.85894918       5.34749516
C       11.16774158      -6.59325348       5.42881748
C       11.66105628      -5.35093878       5.04590376
C       10.78257082      -4.37246207       4.56784127
H        0.92347363      -1.08828012       3.63957517
H        2.30979478      -2.52259168       5.05619624
H        4.16641300      -4.17185954       1.49090522
H        2.81184316      -2.70088946       0.12317235
H        6.00003276      -4.61428303       2.09206542
H        7.00130066      -5.68295340       2.97558963
H        7.87150161      -6.13182123       4.88673364
H        9.40885287      -7.81894495       5.67302275
H       12.72349374      -5.12968862       5.11627645
H       11.20319330      -3.41040776       4.27557698
C       12.06737425      -7.60365305       5.92212647
C       12.82081661      -8.44986269       6.33527276
Br      14.03906919      -9.81811210       7.00329536
C       -0.00445707       0.01189536      -1.78238275
H       -0.66409135       0.67374010      -2.43557963
H        0.65740317      -0.63156657      -2.45157240
C       -0.90989263      -0.90692880      -0.91072765
C        0.90977584       0.90977584      -0.90977584
C       -0.00465871       1.77757030       0.00794375
H       -0.66225468       2.44313916      -0.64384735
H        0.64322798       2.43503045       0.67728295
C       -1.78241447       0.00034974      -0.00472694
H       -2.45427497      -0.65498947       0.64260836
H       -2.43311707       0.67328779      -0.65473579
C       -0.91132561       0.90220522       0.91563759
C       -0.01476271      -0.02253852       1.78660255
H       -0.67934791      -0.69751639       2.42135241
H        0.63392994       0.61504881       2.47327442
C        0.01484550      -1.77751727      -0.01636693
H        0.67870853      -2.42144646      -0.68295456
H       -0.62264859      -2.45592969       0.64226336
C        1.78714474       0.01002794       0.00389507
H        2.44202412       0.67113390       0.66197326
H        2.45385902      -0.65136977      -0.64189061
C        0.91606151      -0.90478549       0.90901405
