173
Properties=species:S:1:pos:R:3 pbc="F F F"
C        0.00000000       0.00000000       0.00000000
N       -0.30426980       4.09999279      -7.45539551
C        0.59588194       4.05309474      -6.72511095
C        1.66587937       4.01218312      -5.77248995
C        1.69724471       4.81329461      -4.69220825
C        2.78682253       4.78207612      -3.66114271
C        3.45628359       3.39227239      -3.44799723
C        4.77588551       3.72786646      -2.66055348
C        2.52700586       2.51442500      -2.52654663
C        1.25905193       2.06895671      -2.95188842
C        0.44546772       1.26487411      -2.14032238
C        0.88028571       0.88028571      -0.88028571
C        2.12398513       1.29052743      -0.42696336
C        2.93390646       2.09271105      -1.24065842
C        3.81623371       2.71204449      -4.87137227
C        5.04466914       3.28114093      -5.37357097
N        6.02386269       3.73476171      -5.77386757
C        3.75673819       1.27769960      -4.71568944
N        3.70932116       0.13437868      -4.59158721
C        2.76797791       3.02422041      -5.99251610
N        2.82797623       2.45005343      -7.16293535
C        0.61876493       5.78689947      -4.42467006
C       -0.46142834       5.43783659      -3.60234051
C       -1.49723575       6.34782276      -3.37454579
C       -1.45293219       7.60732083      -3.96777450
C       -0.38308352       7.96588044      -4.78564419
C        0.65280876       7.05580962      -5.01509493
H        3.53639913       5.51975035      -3.97885716
H        2.40649887       5.14193745      -2.69436296
H        5.40675866       4.45375442      -3.18568341
H        5.38037806       2.83042742      -2.48509763
H        4.56001040       4.20133774      -1.69444023
H        0.85658323       2.30006095      -3.93118204
H       -0.52178037       0.93337454      -2.51224635
H        2.48434858       0.98714397       0.55321846
H        3.90092797       2.35361222      -0.81783092
H        3.60054746       1.78138317      -7.28064182
H       -0.51924857       4.45796912      -3.13494909
H       -2.33353820       6.06248916      -2.74118068
H       -0.35046977       8.94580306      -5.25527372
H        1.47453451       7.34753668      -5.66549769
C       -2.52150587       8.54411257      -3.73502673
C       -3.41643632       9.32867566      -3.54010047
Br      -4.86346318      10.59724781      -3.22492119
N       -0.28503108      -3.00547798      -7.96060944
C       -1.06416980      -3.18898470      -7.12093314
C       -1.97574587      -3.43263201      -6.04217456
C       -1.74086948      -4.36278975      -5.09908835
C       -2.65864290      -4.62905030      -3.94234817
C       -3.46335280      -3.39461633      -3.43858408
C       -4.59542889      -4.02321404      -2.54566252
C       -2.52857022      -2.51473389      -2.52467339
C       -1.40720346      -1.83316945      -3.03952415
C       -0.59268784      -1.02863662      -2.22933975
C       -0.88028571      -0.88028571      -0.88028571
C       -1.97826470      -1.52732464      -0.33588658
C       -2.78975506      -2.32917173      -1.14834914
C       -4.11743325      -2.59696005      -4.68525717
C       -5.32279526      -3.27339031      -5.10319547
N       -6.28359672      -3.81256893      -5.43632632
C       -4.22200943      -1.20234220      -4.32577561
N       -4.30537329      -0.09068978      -4.03922398
C       -3.21717073      -2.60057993      -5.96696377
N       -3.52562816      -1.89483944      -7.02049740
C       -0.51735038      -5.19046964      -5.12251444
C        0.61916624      -4.79344791      -4.40446709
C        1.78665400      -5.55999535      -4.45179146
C        1.81795952      -6.72416187      -5.21596079
C        0.69348254      -7.12952332      -5.93240034
C       -0.47434718      -6.36269064      -5.88667550
H       -3.34514939      -5.42301851      -4.26683874
H       -2.09449364      -5.05037085      -3.09793478
H       -5.19814731      -4.76094543      -3.08710374
H       -5.27818498      -3.25677611      -2.16094202
H       -4.17782230      -4.58041171      -1.69755437
H       -1.12923232      -1.87235947      -4.08623443
H        0.25671743      -0.51070818      -2.66984978
H       -2.22421423      -1.41110306       0.71704321
H       -3.64048614      -2.78447428      -0.64741070
H       -4.38729999      -1.33973121      -6.93554124
H        0.61857946      -3.88501461      -3.80723448
H        2.66411189      -5.23740239      -3.89684114
H        0.71844864      -8.03394876      -6.53510690
H       -1.33923644      -6.68715783      -6.46117460
C        3.02178491      -7.51272421      -5.26669413
C        4.02998867      -8.17314517      -5.30918330
Br       5.66016888      -9.24099001      -5.37788470
N       -8.24226276       1.39501715       1.61383859
C       -7.33871315       1.94374399       2.09163049
C       -6.19458483       2.56116789       2.69479972
C       -5.51492649       1.98507576       3.70274533
C       -4.29918063       2.58872390       4.34213683
C       -3.42542085       3.46988211       3.40125025
C       -2.50197944       4.27298882       4.38933719
C       -2.52198476       2.53010711       2.51588562
C       -3.06823785       1.66898789       1.54267133
C       -2.25993894       0.85367401       0.73705125
C       -0.88028571       0.88028571       0.88028571
C       -0.30242810       1.71863630       1.82041152
C       -1.11288500       2.53195158       2.62243935
C       -4.35420159       4.48989722       2.55555166
C       -4.69218129       5.62352143       3.38367832
N       -4.96157536       6.52713950       4.04377710
C       -3.70489768       4.75244974       1.29277981
N       -3.18732742       4.96173493       0.28622470
C       -5.74265298       3.88316283       2.15889861
N       -6.56226933       4.51493408       1.36376160
C       -5.91301144       0.67049995       4.24682306
C       -5.33114634      -0.50519597       3.75279839
C       -5.73033187      -1.75054957       4.24535050
C       -6.71040156      -1.82087615       5.23263772
C       -7.29445118      -0.65852452       5.73251445
C       -6.89669205       0.58753383       5.23948744
H       -4.65857465       3.18311829       5.19331371
H       -3.66619850       1.80110522       4.77549556
H       -3.07320534       4.84041483       5.13257630
H       -1.85922467       4.98196073       3.85471771
H       -1.86849284       3.60300544       4.98429009
H       -4.13242038       1.60827361       1.34713224
H       -2.72208980       0.21200582      -0.01025510
H        0.77809549       1.76019289       1.93617668
H       -0.57944245       3.17310878       3.31981988
H       -6.22158410       5.42205488       1.01893346
H       -4.56949420      -0.47349754       2.97767297
H       -5.27725866      -2.65566398       3.84853695
H       -8.06467377      -0.71193619       6.49786943
H       -7.37111789       1.48420825       5.63224274
C       -7.12350160      -3.10428432       5.73841615
C       -7.46947289      -4.17913867       6.16200558
Br      -8.02887919      -5.91708724       6.84691387
N        7.10093897      -4.66836124      -0.51818171
C        6.42749700      -4.53031651       0.41627412
C        5.59749858      -4.29278049       1.56027337
C        5.70943831      -3.18217371       2.31113555
C        4.84275525      -2.88736913       3.49991699
C        3.40004514      -3.46916321       3.42734486
C        2.88154352      -3.37351056       4.90925136
C        2.51652776      -2.53049018       2.52095955
C        2.75157285      -2.39016125       1.13816296
C        1.94672410      -1.57530752       0.32863259
C        0.88028571      -0.88028571       0.88028571
C        0.61021245      -0.99668887       2.23457460
C        1.41568414      -1.81205860       3.03953319
C        3.43532836      -5.01473031       2.94959180
C        3.76930571      -5.85356846       4.07650687
N        4.03550887      -6.52220707       4.97477603
C        2.20815200      -5.29851741       2.24345783
N        1.22996020      -5.52472282       1.68060404
C        4.56259235      -5.31709261       1.90502946
N        4.65189930      -6.47648123       1.31258448
C        6.70203432      -2.13516266       1.99313748
C        6.34446075      -1.04086699       1.19342102
C        7.29167121      -0.06674102       0.86672057
C        8.59620406      -0.18566815       1.34029093
C        8.96249597      -1.26832941       2.13761574
C        8.01600491      -2.24387259       2.46383581
H        5.37024641      -3.28866795       4.37609229
H        4.77720073      -1.80212244       3.66347611
H        3.53784145      -3.88907158       5.61928344
H        1.87852698      -3.80305898       5.01431715
H        2.85846212      -2.33483721       5.26248904
H        3.54494711      -2.91938582       0.62349330
H        2.15614635      -1.50437827      -0.73668410
H       -0.22958591      -0.46820155       2.67965844
H        1.12376622      -1.86304723       4.08555767
H        3.92793340      -7.15742641       1.57721264
H        5.33383258      -0.93207564       0.80776141
H        7.00416093       0.77316824       0.23913895
H        9.98200059      -1.36653137       2.50207506
H        8.32157493      -3.08853640       3.07745755
C        9.57287216       0.81682956       1.00159082
C       10.39083170       1.65642138       0.71792948
Br      11.71340310       3.01397036       0.25927309
