186
Properties=species:S:1:pos:R:3 pbc="F F F"
N        0.60563422       5.00989682      -8.36529953
C        1.50578597       4.96299877      -7.63501497
C        2.57578340       4.92208714      -6.68239398
C        2.60714874       5.72319863      -5.60211228
C        3.69672656       5.69198014      -4.57104674
C        4.36618762       4.30217641      -4.35790125
C        5.68578953       4.63777048      -3.57045751
C        3.43690988       3.42432902      -3.43645065
C        2.16895595       2.97886073      -3.86179244
C        1.35537174       2.17477814      -3.05022640
C        1.79018973       1.79018973      -1.79018973
C        3.03388915       2.20043145      -1.33686739
C        3.84381048       3.00261507      -2.15056244
C        4.72613773       3.62194852      -5.78127629
C        5.95457316       4.19104495      -6.28347500
N        6.93376671       4.64466573      -6.68377159
C        4.66664222       2.18760363      -5.62559346
N        4.61922518       1.04428271      -5.50149124
C        3.67788193       3.93412443      -6.90242013
N        3.73788025       3.35995745      -8.07283938
C        1.52866896       6.69680349      -5.33457408
C        0.44847568       6.34774062      -4.51224453
C       -0.58733173       7.25772678      -4.28444982
C       -0.54302817       8.51722485      -4.87767852
Br      -1.94550549       9.74674155      -4.57220265
C        0.52682051       8.87578446      -5.69554822
C        1.56271279       7.96571364      -5.92499896
H        4.44630316       6.42965438      -4.88876119
H        3.31640289       6.05184147      -3.60426699
H        6.31666268       5.36365844      -4.09558743
H        6.29028209       3.74033144      -3.39500165
H        5.46991443       5.11124177      -2.60434425
H        1.76648726       3.20996498      -4.84108607
H        0.38812365       1.84327857      -3.42215037
H        3.39425261       1.89704799      -0.35668556
H        4.81083199       3.26351625      -1.72773494
H        4.51045148       2.69128719      -8.19054584
H        0.39065546       5.36787314      -4.04485311
H       -1.42363418       6.97239318      -3.65108471
H        0.55943426       9.85570708      -6.16517775
H        2.38443853       8.25744070      -6.57540171
N       -2.53831427      -2.29084519      -9.15167112
C       -3.03837246      -2.81806314      -8.24736411
C       -3.59432432      -3.48109828      -7.10484192
C       -2.96077182      -4.49066744      -6.48102039
C       -3.49921485      -5.19183022      -5.26870837
C       -4.38055414      -4.31274695      -4.33296418
C       -5.11665093      -5.35927218      -3.41809441
C       -3.44020863      -3.42608261      -3.43139832
C       -2.63239718      -2.40518686      -3.97202510
C       -1.81700068      -1.59931686      -3.16405874
C       -1.79018973      -1.79018973      -1.79018973
C       -2.57527240      -2.77830955      -1.21760604
C       -3.38887064      -3.58044800      -2.02766936
C       -5.46074816      -3.47238017      -5.19623422
C       -6.57676769      -4.32790440      -5.52442102
N       -7.46635277      -5.00984233      -5.78600894
C       -5.74305236      -2.24241358      -4.49437337
N       -5.96808125      -1.26200804      -3.93490984
C       -4.91704982      -3.00768921      -6.58968747
N       -5.60390715      -2.20787728      -7.35889265
C       -1.64328490      -4.97433374      -6.94242789
C       -0.46531503      -4.45931809      -6.38382771
C        0.78124319      -4.89391767      -6.84217040
C        0.85055832      -5.84425229      -7.85818123
Br       2.53646953      -6.42961514      -8.48029309
C       -0.31396123      -6.36456945      -8.41962251
C       -1.56128967      -5.92947186      -7.96266386
H       -4.07661973      -6.05068404      -5.63741495
H       -2.67555217      -5.61847440      -4.67848478
H       -5.67823733      -6.10217185      -3.99549937
H       -5.82033175      -4.87206552      -2.73321791
H       -4.40497490      -5.95147175      -2.82905380
H       -2.61582783      -2.17159063      -5.03011984
H       -1.21774447      -0.81463456      -3.62117356
H       -2.57484257      -2.93210868      -0.14103491
H       -3.98680528      -4.31766837      -1.49760954
H       -6.50967586      -1.90694125      -6.97566740
H       -0.49652208      -3.71211208      -5.59474755
H        1.68772822      -4.48113787      -6.40643406
H       -0.26170032      -7.10096184      -9.21765693
H       -2.46023368      -6.33717596      -8.41987131
N       -9.13879564       2.74028092       2.10175401
C       -8.23647455       3.19817771       2.66914745
C       -7.09854176       3.70101360       3.38070915
C       -6.52313171       3.02071530       4.38861264
C       -5.31709273       3.50290922       5.13975149
C       -4.33100621       4.38109266       4.31416641
C       -3.42667793       5.05965292       5.40768668
C       -3.43098949       3.44035335       3.42634673
C       -3.96419872       2.67837712       2.36703329
C       -3.15650682       1.86292690       1.56094257
C       -1.79018973       1.79018973       1.79018973
C       -1.22473531       2.52945283       2.81699986
C       -2.03446391       3.34327493       3.61924916
C       -5.13786408       5.50986828       3.48163018
C       -5.45903967       6.61012827       4.35992517
N       -5.71503878       7.48715113       5.06001413
C       -4.39227030       5.80645810       2.28111091
N       -3.79794717       6.04287372       1.32417824
C       -6.53201017       5.02099264       2.96142369
N       -7.25733650       5.75283089       2.16050969
C       -7.03611404       1.70409300       4.81983950
C       -6.49652698       0.52539845       4.28653540
C       -7.00297093      -0.71904087       4.67091482
C       -8.04811267      -0.78555985       5.58932238
Br      -8.73520625      -2.46847071       6.10670318
C       -8.59107966       0.37962771       6.12744583
C       -8.08598186       1.62489163       5.74255190
H       -5.69426926       4.06610798       6.00434147
H       -4.76351625       2.65033688       5.55865822
H       -4.00941250       5.61651556       6.14998050
H       -2.70788046       5.75650343       4.96123130
H       -2.87595654       4.31426871       5.99527520
H       -5.01499085       2.69968826       2.10285919
H       -3.60726569       1.30010756       0.74617934
H       -0.15361750       2.49289651       3.00147215
H       -1.50946084       3.90398280       4.38863955
H       -6.83964013       6.65515598       1.89748840
H       -5.68520096       0.55471440       3.56346635
H       -6.58138574      -1.62578559       4.24424356
H       -9.41163637       0.32984906       6.83883366
H       -8.52908631       2.52487971       6.16331494
N        9.09941187      -1.83627796       3.04514075
C        8.20878967      -2.48253069       3.41247934
C        7.07525342      -3.22372834       3.88128275
C        6.28387925      -2.77587243       4.87270797
C        5.07549615      -3.51121014       5.37304715
C        4.34043145      -4.37769957       4.30813426
C        3.41326962      -5.31730468       5.16344322
C        3.43294101      -3.43950146       3.42524709
C        3.97948440      -2.47007020       2.56005453
C        3.17046022      -1.65499894       1.75491712
C        1.79018973      -1.79018973       1.79018973
C        1.21282137      -2.73669104       2.62167558
C        2.02409389      -3.54934746       3.42354665
C        5.40195326      -5.26178846       3.46562082
C        5.76591490      -6.42849337       4.23468484
N        6.05601978      -7.35848065       4.84770362
C        4.86572671      -5.47256061       2.14155198
N        4.43829080      -5.64057240       1.08613593
C        6.76466125      -4.52966567       3.22009957
N        7.68439742      -5.03921914       2.44706052
C        6.54090408      -1.48175468       5.53738776
C        5.90749097      -0.31599287       5.08497699
C        6.17454571       0.91328969       5.69358885
C        7.07393656       0.97735197       6.75529061
Br       7.43756028       2.64039949       7.57627792
C        7.70808906      -0.17542993       7.21463420
C        7.44254040      -1.40527606       6.60560893
H        5.41796725      -4.14185962       6.20489185
H        4.35512804      -2.80581674       5.81156658
H        3.97201294      -5.89787957       5.90601603
H        2.86601513      -6.02717708       4.53242297
H        2.68992378      -4.74127551       5.75430116
H        5.04710484      -2.31933145       2.45110201
H        3.63409484      -0.92702785       1.09242990
H        0.13314113      -2.86344616       2.65139886
H        1.49305519      -4.27805322       4.03097478
H        7.43923960      -5.93923652       2.01380840
H        5.20734312      -0.34234771       4.25369088
H        5.68298451       1.81165151       5.32851070
H        8.41579611      -0.12612679       8.03839618
H        7.95498160      -2.29342055       6.96887880
C       -0.00445707       0.01189536      -1.78238275
H       -0.66409135       0.67374010      -2.43557963
H        0.65740317      -0.63156657      -2.45157240
C       -0.90989263      -0.90692880      -0.91072765
C        0.90977584       0.90977584      -0.90977584
C       -0.00465871       1.77757030       0.00794375
H       -0.66225468       2.44313916      -0.64384735
H        0.64322798       2.43503045       0.67728295
C       -1.78241447       0.00034974      -0.00472694
H       -2.45427497      -0.65498947       0.64260836
H       -2.43311707       0.67328779      -0.65473579
C       -0.91132561       0.90220522       0.91563759
C       -0.01476271      -0.02253852       1.78660255
H       -0.67934791      -0.69751639       2.42135241
H        0.63392994       0.61504881       2.47327442
C        0.01484550      -1.77751727      -0.01636693
H        0.67870853      -2.42144646      -0.68295456
H       -0.62264859      -2.45592969       0.64226336
C        1.78714474       0.01002794       0.00389507
H        2.44202412       0.67113390       0.66197326
H        2.45385902      -0.65136977      -0.64189061
C        0.91606151      -0.90478549       0.90901405
