165
Properties=species:S:1:pos:R:3 pbc="F F F"
C        0.00000000       0.00000000       0.00000000
N       -0.30426980       4.09999279      -7.45539551
C        0.59588194       4.05309474      -6.72511095
C        1.66587937       4.01218312      -5.77248995
C        1.69724471       4.81329461      -4.69220825
C        2.78682253       4.78207612      -3.66114271
C        3.45628359       3.39227239      -3.44799723
C        4.77588551       3.72786646      -2.66055348
C        2.52700586       2.51442500      -2.52654663
C        1.25905193       2.06895671      -2.95188842
C        0.44546772       1.26487411      -2.14032238
C        0.88028571       0.88028571      -0.88028571
C        2.12398513       1.29052743      -0.42696336
C        2.93390646       2.09271105      -1.24065842
C        3.81623371       2.71204449      -4.87137227
C        5.04466914       3.28114093      -5.37357097
N        6.02386269       3.73476171      -5.77386757
C        3.75673819       1.27769960      -4.71568944
N        3.70932116       0.13437868      -4.59158721
C        2.76797791       3.02422041      -5.99251610
N        2.82797623       2.45005343      -7.16293535
C        0.61876493       5.78689947      -4.42467006
C       -0.46142834       5.43783659      -3.60234051
C       -1.49723575       6.34782276      -3.37454579
C       -1.45293219       7.60732083      -3.96777450
Br      -2.85540951       8.83683752      -3.66229863
C       -0.38308352       7.96588044      -4.78564419
C        0.65280876       7.05580962      -5.01509493
H        3.53639913       5.51975035      -3.97885716
H        2.40649887       5.14193745      -2.69436296
H        5.40675866       4.45375442      -3.18568341
H        5.38037806       2.83042742      -2.48509763
H        4.56001040       4.20133774      -1.69444023
H        0.85658323       2.30006095      -3.93118204
H       -0.52178037       0.93337454      -2.51224635
H        2.48434858       0.98714397       0.55321846
H        3.90092797       2.35361222      -0.81783092
H        3.60054746       1.78138317      -7.28064182
H       -0.51924857       4.45796912      -3.13494909
H       -2.33353820       6.06248916      -2.74118068
H       -0.35046977       8.94580306      -5.25527372
H        1.47453451       7.34753668      -5.66549769
N        0.20110116      -3.87295927      -7.57926039
C       -0.67799579      -3.87378325      -6.82230860
C       -1.72003407      -3.89201807      -5.83850031
C       -1.69631593      -4.72445920      -4.78197244
C       -2.75531490      -4.75521615      -3.71951031
C       -3.45787994      -3.39256544      -3.44610783
C       -4.74336993      -3.78962697      -2.63130855
C       -2.52735426      -2.51444895      -2.52617429
C       -1.28590166      -2.01955620      -2.97443920
C       -0.47210384      -1.21540743      -2.16315294
C       -0.88028571      -0.88028571      -0.88028571
C       -2.09768911      -1.34006846      -0.40371835
C       -2.90794489      -2.14215010      -1.21718094
C       -3.87926622      -2.68262616      -4.83775808
C       -5.10515711      -3.27318181      -5.32104212
N       -6.08232239      -3.74390814      -5.70626144
C       -3.85648072      -1.25222200      -4.64142452
N       -3.83832514      -0.11204265      -4.48491926
C       -2.85613854      -2.93121928      -5.99735660
N       -2.96728281      -2.32564225      -7.14803994
C       -0.58281555      -5.67297925      -4.57453965
C        0.51077543      -5.31587283      -3.77365136
C        1.57863181      -6.20094914      -3.60281547
C        1.55303106      -7.44361568      -4.23157852
Br       2.99874011      -8.63932172      -4.00314503
C        0.47018124      -7.81003259      -5.02858977
C       -0.59781144      -6.92482655      -5.20107533
H       -3.49243915      -5.50532689      -4.03724060
H       -2.33631825      -5.13132056      -2.77516047
H       -5.36837627      -4.51847650      -3.15934371
H       -5.36797129      -2.91591155      -2.41202027
H       -4.48543227      -4.28409736      -1.68625874
H       -0.90614022      -2.21036120      -3.97132481
H        0.47376142      -0.84483224      -2.55276970
H       -2.43743467      -1.07582402       0.59498460
H       -3.85410703      -2.44364510      -0.77461898
H       -3.76192242      -1.67704469      -7.22360534
H        0.55419918      -4.34857701      -3.27929181
H        2.42477534      -5.90930615      -2.98560082
H        0.45187774      -8.77657230      -5.52591245
H       -1.42971150      -7.22193544      -5.83592193
N       -8.24396712       1.52559362       1.48155776
C       -7.33957323       2.04709913       1.98741527
C       -6.19583408       2.63011870       2.62459966
C       -5.54739995       2.02140514       3.63394248
C       -4.33304956       2.58854493       4.30844687
C       -3.42408661       3.47033186       3.40213474
C       -2.50494337       4.23587680       4.42348528
C       -2.52170788       2.53022178       2.51604784
C       -3.06521902       1.69897356       1.51570447
C       -2.25710829       0.88361064       0.70994528
C       -0.88028571       0.88028571       0.88028571
C       -0.30497023       1.68879057       1.84771511
C       -1.11520600       2.50226751       2.64980242
C       -4.31617188       4.52457160       2.55890699
C       -4.64843980       5.64843016       3.40251108
N       -4.91328088       6.54426387       4.07494722
C       -3.63718575       4.79862143       1.31432006
N       -3.09595571       5.01707093       0.32226042
C       -5.70800049       3.95306030       2.12365364
N       -6.49945398       4.61607851       1.32543252
C       -5.98142486       0.70466191       4.14424769
C       -5.41275397      -0.47250413       3.63849892
C       -5.84552820      -1.71903501       4.09863961
C       -6.84601966      -1.78910155       5.06524502
Br      -7.43358701      -3.47504578       5.68518541
C       -7.41724708      -0.62534470       5.57653874
C       -6.98587574       0.62192791       5.11590966
H       -4.69758819       3.17335526       5.16406319
H       -3.72404592       1.78039754       4.73835582
H       -3.07962906       4.79998324       5.16658418
H       -1.83822010       4.94224700       3.91543601
H       -1.89634561       3.54219020       5.01725257
H       -4.12631955       1.66300806       1.29849862
H       -2.71675975       0.26571277      -0.05863200
H        0.77366577       1.70682414       1.98511571
H       -0.58331694       3.11921497       3.36983920
H       -6.13459618       5.52280484       1.00517142
H       -4.63551961      -0.44084722       2.87899725
H       -5.40228999      -2.62506373       3.69290537
H       -8.20327548      -0.67834922       6.32568075
H       -7.45054152       1.52001857       5.51700879
N        8.00217724      -2.88399296       0.36494830
C        7.14407420      -3.12135321       1.10866022
C        6.07109648      -3.34810554       2.03135042
C        5.74943198      -2.46211166       2.99120393
C        4.61843915      -2.65312366       3.95847855
C        3.41197549      -3.47238192       3.41219580
C        2.60268518      -3.85656105       4.70505922
C        2.51915267      -2.53086858       2.51795623
C        2.98099405      -2.00422806       1.29467495
C        2.17456320      -1.18872521       0.48737580
C        0.88028571      -0.88028571       0.88028571
C        0.38490883      -1.38405341       2.07251367
C        1.19296651      -2.19877412       2.87553530
C        3.92810057      -4.80980702       2.66174288
C        4.23145451      -5.82111869       3.64680784
N        4.47324744      -6.62723923       4.43200530
C        2.97675826      -5.14494665       1.62842233
N        2.21843285      -5.41208852       0.80476569
C        5.27925937      -4.61044764       1.89500741
N        5.77240342      -5.54248778       1.12607381
C        6.49017657      -1.19337441       3.14678348
C        6.03543098      -0.02683354       2.51648424
C        6.75319471       1.16602837       2.63796646
C        7.92504420       1.19333771       3.39045664
Br       8.89750142       2.80584434       3.55206956
C        8.38560446       0.04014984       4.02298650
C        7.66897332      -1.15379149       3.90094850
H        5.04507418      -3.14856704       4.84136543
H        4.25150511      -1.67897501       4.31231916
H        3.21299959      -4.39300535       5.44019154
H        1.73934797      -4.48891637       4.46763877
H        2.25004532      -2.96571545       5.24002761
H        3.96761037      -2.21904720       0.90116866
H        2.56655295      -0.81260091      -0.45531334
H       -0.63169948      -1.16167962       2.38829395
H        0.72164037      -2.56753249       3.78319825
H        5.20488481      -6.39770452       1.05998311
H        5.12713922      -0.02749395       1.91903646
H        6.39452062       2.06225334       2.13786436
H        9.30385490       0.05792507       4.60467718
H        8.04872106      -2.04743415       4.39141366
