146
Properties=species:S:1:pos:R:3 pbc="F F F"
O        4.68908107       5.83103187      -6.90180171
C        5.20347498       5.01711642      -6.12571190
C        4.37034778       3.91523892      -5.47717545
O        4.19857527       4.26187491      -4.10373042
C        3.40848406       3.39809028      -3.39865993
C        2.48381001       3.98039445      -2.52965189
C        1.66637750       3.17779108      -1.72995009
C        1.79186534       1.79186534      -1.79186534
C        2.72842773       1.20442988      -2.64137869
C        3.54362433       2.01004492      -3.44158356
N        6.53484572       5.15135459      -5.85678026
C        7.29516762       4.28288071      -5.13463005
S        8.92931363       4.70873297      -4.88793231
N        9.26213653       3.30863428      -4.03356450
C        8.12174717       2.60793015      -3.99499104
N        6.98764149       3.12630068      -4.61426764
C        8.04178224       1.27314840      -3.32275086
C        9.06436853       0.61493926      -2.66310273
C        8.52550158      -0.61116358      -2.19573231
C        7.21063958      -0.62711561      -2.59740403
Br       5.99715811      -2.00370145      -2.26198895
O        6.90890839       0.50542134      -3.28107074
H        4.85188962       2.94671435      -5.63444970
H        3.39529588       3.89332298      -5.97957149
H        2.39724082       5.06214183      -2.47609415
H        0.94668800       3.64301174      -1.06128103
H        2.84549380       0.12446056      -2.67639546
H        4.30100152       1.53538439      -4.05807338
H        6.98379465       5.95799973      -6.26406985
H       10.07425965       0.97988904      -2.53665221
H        9.03683012      -1.38242808      -1.63581835
O       -4.58734450      -6.74626513      -6.08830503
C       -4.81688224      -5.53468244      -5.99473860
C       -3.78609652      -4.58396231      -5.39270332
O       -4.26126896      -4.19957758      -4.10333406
C       -3.40616913      -3.39512083      -3.40394431
C       -3.24715353      -3.69666428      -2.05003855
C       -2.43185685      -2.90022777      -1.24203405
C       -1.79186534      -1.79186534      -1.79186534
C       -1.96378434      -1.47237904      -3.13807291
C       -2.77871165      -2.27217221      -3.94436894
N       -6.02890483      -5.08328933      -6.43078641
C       -6.40853196      -3.77912657      -6.52501984
S       -8.00566925      -3.47584928      -7.04446037
N       -7.81091454      -1.81491198      -6.97850880
C       -6.55285569      -1.59644341      -6.57536927
N       -5.72663724      -2.68642318      -6.31514939
C       -6.00686609      -0.21173690      -6.41907852
C       -6.68449515       0.97528762      -6.63320299
C       -5.76602242       2.02300572      -6.36705361
C       -4.58688310       1.41383891      -6.00788381
Br      -3.01277102       2.30059211      -5.54326669
O       -4.72092380       0.06395683      -6.03843350
H       -3.61594436      -3.74491585      -6.07219347
H       -2.84219052      -5.13397473      -5.29202510
H       -3.75736442      -4.55547394      -1.62263844
H       -2.31191279      -3.14845959      -0.19060838
H       -1.48455229      -0.59576523      -3.56603230
H       -2.94008625      -1.97748329      -4.97688974
H       -6.67682997      -5.79477710      -6.73425716
H       -7.71623533       1.06833493      -6.94290048
H       -5.94737211       3.08739689      -6.43024518
O       -6.81670149       5.98105647       4.62415670
C       -5.59232442       5.95743410       4.79654476
C       -4.66302603       5.35051653       3.74921959
O       -4.19176474       4.10667773       4.26573813
C       -3.39503546       3.40447992       3.40571889
C       -3.63522017       2.03136968       3.32726651
C       -2.83910556       1.22244238       2.51257074
C       -1.79186534       1.79186534       1.79186534
C       -1.53277394       3.15880770       1.88265465
C       -2.33216867       3.96585096       2.69723318
N       -5.10584412       6.47519245       5.96194400
C       -3.79137676       6.65092436       6.27037725
S       -3.43837545       7.26418097       7.82342249
N       -1.78748795       7.26828016       7.54856720
C       -1.60959968       6.81317643       6.30189225
N       -2.72346737       6.45962407       5.54511838
C       -0.24657447       6.69619114       5.69491589
C        0.95929563       7.00092585       6.30078030
C        1.97381266       6.73939691       5.34448606
C        1.32764351       6.29241627       4.21615524
Br       2.16012742       5.79212136       2.62345167
O       -0.01407207       6.26486787       4.41646053
H       -3.86843755       6.06004668       3.50456945
H       -5.25192737       5.17609894       2.84016404
H       -4.44591365       1.58951413       3.90004902
H       -3.03948274       0.15560689       2.45589113
H       -0.70286100       3.60363743       1.33985140
H       -2.08250567       5.01814571       2.79380791
H       -5.79981168       6.77644822       6.62960433
H        1.08601747       7.36635393       7.31046443
H        3.04113950       6.86265905       5.46870084
O        6.59011019      -6.29046914       4.54133533
C        5.42109586      -6.05572941       4.86947801
C        4.43069102      -5.45777028       3.87430085
O        4.21449114      -4.09861219       4.25107727
C        3.39542427      -3.40285970       3.40695031
C        3.80129588      -2.10597505       3.08658543
C        3.00402395      -1.29979001       2.27030472
C        1.79186534      -1.79186534       1.79186534
C        1.37020533      -3.07815558       2.12587538
C        2.17092141      -3.88301710       2.94131431
N        5.05545134      -6.33252361       6.15500562
C        3.79265641      -6.26096692       6.65905504
S        3.60471145      -6.60021684       8.32105062
N        1.94551812      -6.38644122       8.27237597
C        1.63984978      -6.07943834       7.00538025
N        2.66083849      -6.00568010       6.06169122
C        0.22743174      -5.83568817       6.57456159
C       -0.90038561      -5.86756643       7.37522971
C       -2.00617981      -5.58250836       6.53374176
C       -1.48790363      -5.39467986       5.27415177
Br      -2.48175386      -4.98863580       3.74856366
O       -0.13976935      -5.54778315       5.28738667
H        3.52059145      -6.06256831       3.84989391
H        4.89039949      -5.49877636       2.87901450
H        4.74208749      -1.72203882       3.47135049
H        3.33350136      -0.29373005       2.02374935
H        0.41482043      -3.45805092       1.77347846
H        1.80127411      -4.86193524       3.23124995
H        5.79764871      -6.64551043       6.76270509
H       -0.91752324      -6.07138761       8.43693653
H       -3.04841294      -5.52218846       6.81644488
C       -0.00445707       0.01189536      -1.78238275
H       -0.66409135       0.67374010      -2.43557963
H        0.65740317      -0.63156657      -2.45157240
C       -0.90989263      -0.90692880      -0.91072765
C        0.90977584       0.90977584      -0.90977584
C       -0.00465871       1.77757030       0.00794375
H       -0.66225468       2.44313916      -0.64384735
H        0.64322798       2.43503045       0.67728295
C       -1.78241447       0.00034974      -0.00472694
H       -2.45427497      -0.65498947       0.64260836
H       -2.43311707       0.67328779      -0.65473579
C       -0.91132561       0.90220522       0.91563759
C       -0.01476271      -0.02253852       1.78660255
H       -0.67934791      -0.69751639       2.42135241
H        0.63392994       0.61504881       2.47327442
C        0.01484550      -1.77751727      -0.01636693
H        0.67870853      -2.42144646      -0.68295456
H       -0.62264859      -2.45592969       0.64226336
C        1.78714474       0.01002794       0.00389507
H        2.44202412       0.67113390       0.66197326
H        2.45385902      -0.65136977      -0.64189061
C        0.91606151      -0.90478549       0.90901405
