154
Properties=species:S:1:pos:R:3 pbc="F F F"
O        4.68908107       5.83103187      -6.90180171
C        5.20347498       5.01711642      -6.12571190
C        4.37034778       3.91523892      -5.47717545
O        4.19857527       4.26187491      -4.10373042
C        3.40848406       3.39809028      -3.39865993
C        2.48381001       3.98039445      -2.52965189
C        1.66637750       3.17779108      -1.72995009
C        1.79186534       1.79186534      -1.79186534
C        2.72842773       1.20442988      -2.64137869
C        3.54362433       2.01004492      -3.44158356
N        6.53484572       5.15135459      -5.85678026
C        7.29516762       4.28288071      -5.13463005
S        8.92931363       4.70873297      -4.88793231
N        9.26213653       3.30863428      -4.03356450
C        8.12174717       2.60793015      -3.99499104
N        6.98764149       3.12630068      -4.61426764
C        8.04178224       1.27314840      -3.32275086
C        9.06436853       0.61493926      -2.66310273
C        8.52550158      -0.61116358      -2.19573231
C        7.21063958      -0.62711561      -2.59740403
O        6.90890839       0.50542134      -3.28107074
H        4.85188962       2.94671435      -5.63444970
H        3.39529588       3.89332298      -5.97957149
H        2.39724082       5.06214183      -2.47609415
H        0.94668800       3.64301174      -1.06128103
H        2.84549380       0.12446056      -2.67639546
H        4.30100152       1.53538439      -4.05807338
H        6.98379465       5.95799973      -6.26406985
H       10.07425965       0.97988904      -2.53665221
H        9.03683012      -1.38242808      -1.63581835
C        6.27393164      -1.68972672      -2.33849116
C        5.48943874      -2.57966352      -2.12165163
Br       4.22098008      -4.01861606      -1.77104045
O       -4.63281803      -6.83031298      -5.95878364
C       -4.79294101      -5.60408087      -5.94928141
C       -3.74237364      -4.67926146      -5.34112705
O       -4.26658944      -4.19015031      -4.10744085
C       -3.40562245      -3.39502393      -3.40458790
C       -3.34348864      -3.62197333      -2.02839439
C       -2.52892412      -2.82591563      -1.21927892
C       -1.79186534      -1.79186534      -1.79186534
C       -1.86620427      -1.54582376      -3.16220826
C       -2.68070402      -2.34514321      -3.96940558
N       -5.94803267      -5.11116620      -6.48378171
C       -6.24125569      -3.79551268      -6.67591001
S       -7.78435058      -3.43312394      -7.30850439
N       -7.49264700      -1.78522280      -7.32646552
C       -6.24888050      -1.61529667      -6.86049119
N       -5.50711241      -2.73308370      -6.48801370
C       -5.62924787      -0.25734608      -6.75108756
C       -6.21967662       0.95140832      -7.07414223
C       -5.25577518       1.95883437      -6.81312950
C       -4.13866209       1.30589972      -6.34816563
O       -4.35290723      -0.03337477      -6.30911847
H       -3.48248322      -3.89446002      -6.05611043
H       -2.84117780      -5.27550018      -5.15151236
H       -3.92893978      -4.42229536      -1.58424166
H       -2.48506314      -3.01596510      -0.14995252
H       -1.31050328      -0.72601194      -3.60983460
H       -2.76410020      -2.10526198      -5.02509711
H       -6.61966002      -5.80139457      -6.78480963
H       -7.22427563       1.08458308      -7.45110834
H       -5.36784861       3.02604825      -6.94842003
C       -2.90669776       1.93997009      -5.95596841
C       -1.87492763       2.47100402      -5.62750324
Br      -0.20664260       3.32964098      -5.09640284
O       -4.94968170       5.41586210       7.05637085
C       -5.42406825       4.86789340       6.05434163
C       -4.67422555       3.74447046       5.34406614
O       -4.16842716       4.27563438       4.12011907
C       -3.40822712       3.40012500       3.39688216
C       -2.24017911       3.91883044       2.83484681
C       -1.42387473       3.11269609       2.03754786
C       -1.79186534       1.79186534       1.79186534
C       -2.96824479       1.27394657       2.33204493
C       -3.78198762       2.08244081       3.13082437
N       -6.62973157       5.31574306       5.59750594
C       -7.36148662       4.75648045       4.59471131
S       -8.81429310       5.54377707       4.16790873
N       -9.19669512       4.40671009       3.00093010
C       -8.20787177       3.50391027       3.01288632
N       -7.15387371       3.66641484       3.90792126
C       -8.21862701       2.31438550       2.10466899
C       -9.18048103       2.00103153       1.16089796
C       -8.77246497       0.78755196       0.55005338
C       -7.58993355       0.43467737       1.15631708
O       -7.24774364       1.34903888       2.09861795
H       -5.33444805       2.88291109       5.21569453
H       -3.84094524       3.43848774       5.98875737
H       -1.96284916       4.95298676       3.01964089
H       -0.51431133       3.52668421       1.60998522
H       -3.27087297       0.25089187       2.12458497
H       -4.71878130       1.67590134       3.49977665
H       -7.00966288       6.11656974       6.07963162
H      -10.06643033       2.58129481       0.94307575
H       -9.28100765       0.24352292      -0.23431018
C       -6.81347992      -0.73800242       0.84721858
C       -6.16320001      -1.72012174       0.58834858
Br      -5.11175239      -3.30812562       0.16977769
O        4.54745201      -6.62171283       6.25274981
C        4.85815994      -5.44280899       6.04533435
C        3.85587133      -4.45973505       5.44715578
O        4.25316532      -4.21168894       4.09932634
C        3.40681168      -3.39535261       3.40306997
C        3.11755221      -3.78295497       2.09334917
C        2.30143941      -2.98586304       1.28681622
C        1.79186534      -1.79186534       1.79186534
C        2.09466599      -1.38803698       3.09153333
C        2.91002485      -2.18856273       3.89666524
N        6.13149076      -5.05909626       6.35239354
C        6.61335773      -3.78626722       6.31305343
S        8.26517877      -3.57452403       6.68627611
N        8.18976700      -1.91282202       6.50174629
C        6.92311722      -1.62455304       6.17699811
N        5.99992796      -2.66094278       6.06733907
C        6.47078801      -0.21591675       5.95097675
C        7.24979127       0.92544673       6.01806598
C        6.39333908       2.02088098       5.73761221
C        5.14714222       1.48341552       5.51720130
O        5.18248375       0.13314610       5.64606282
H        3.80371054      -3.56154680       6.06779633
H        2.86866090      -4.93808611       5.46144334
H        3.52651397      -4.70937056       1.69959228
H        2.07928335      -3.30112750       0.27056991
H        1.71786539      -0.44637173       3.48211269
H        3.17529708      -1.83185454       4.88730767
H        6.74701466      -5.79580833       6.66304124
H        8.30713215       0.95805953       6.24172827
H        6.65780164       3.06900275       5.70142149
C        3.96142702       2.23477085       5.19603991
C        2.96839054       2.86403093       4.92706724
Br       1.36273454       3.88149127       4.49216119
C       -0.00445707       0.01189536      -1.78238275
H       -0.66409135       0.67374010      -2.43557963
H        0.65740317      -0.63156657      -2.45157240
C       -0.90989263      -0.90692880      -0.91072765
C        0.90977584       0.90977584      -0.90977584
C       -0.00465871       1.77757030       0.00794375
H       -0.66225468       2.44313916      -0.64384735
H        0.64322798       2.43503045       0.67728295
C       -1.78241447       0.00034974      -0.00472694
H       -2.45427497      -0.65498947       0.64260836
H       -2.43311707       0.67328779      -0.65473579
C       -0.91132561       0.90220522       0.91563759
C       -0.01476271      -0.02253852       1.78660255
H       -0.67934791      -0.69751639       2.42135241
H        0.63392994       0.61504881       2.47327442
C        0.01484550      -1.77751727      -0.01636693
H        0.67870853      -2.42144646      -0.68295456
H       -0.62264859      -2.45592969       0.64226336
C        1.78714474       0.01002794       0.00389507
H        2.44202412       0.67113390       0.66197326
H        2.45385902      -0.65136977      -0.64189061
C        0.91606151      -0.90478549       0.90901405
