133
Properties=species:S:1:pos:R:3 pbc="F F F"
C        0.00000000       0.00000000       0.00000000
O        3.77917705       4.92112785      -5.99189768
C        4.29357095       4.10721239      -5.21580787
C        3.46044376       3.00533489      -4.56727142
O        3.28867125       3.35197089      -3.19382639
C        2.49858003       2.48818626      -2.48875591
C        1.57390598       3.07049043      -1.61974787
C        0.75647348       2.26788706      -0.82004607
C        0.88196132       0.88196132      -0.88196132
C        1.81852371       0.29452585      -1.73147466
C        2.63372031       1.10014089      -2.53167953
N        5.62494170       4.24145057      -4.94687623
C        6.38526359       3.37297668      -4.22472602
S        8.01940961       3.79882894      -3.97802828
N        8.35223250       2.39873026      -3.12366048
C        7.21184315       1.69802613      -3.08508702
N        6.07773746       2.21639665      -3.70436362
C        7.13187822       0.36324438      -2.41284684
C        8.15446450      -0.29496476      -1.75319871
C        7.61559755      -1.52106760      -1.28582829
C        6.30073555      -1.53701964      -1.68750001
O        5.99900437      -0.40448269      -2.37116672
H        3.94198559       2.03681032      -4.72454568
H        2.48539186       2.98341895      -5.06966746
H        1.48733679       4.15223781      -1.56619013
H        0.03678397       2.73310771      -0.15137700
H        1.93558978      -0.78544346      -1.76649143
H        3.39109749       0.62548036      -3.14816936
H        6.07389062       5.04809571      -5.35416583
H        9.16435562       0.06998501      -1.62674819
H        8.12692609      -2.29233210      -0.72591433
C        5.36402762      -2.59963074      -1.42858714
C        4.57953472      -3.48956754      -1.21174760
Br       3.31107605      -4.92852008      -0.86113642
O       -5.58445161      -3.62090907      -5.48684190
C       -5.19302174      -4.03449859      -4.38907088
C       -4.59130628      -3.08203355      -3.35971025
O       -3.18637201      -3.32818288      -3.31991365
C       -2.49174676      -2.49773050      -2.48604494
C       -1.28431746      -2.00008397      -2.97974285
C       -0.48009012      -1.18303894      -2.18127755
C       -0.88196132      -0.88196132      -0.88196132
C       -2.07585752      -1.39350085      -0.37516586
C       -2.87923243      -2.20923194      -1.17707637
N       -5.30118214      -5.37209146      -4.13999490
C       -5.04375592      -5.98661837      -2.95259201
S       -5.19614455      -7.68601236      -2.91410993
N       -4.80907465      -7.77712822      -1.28842037
C       -4.59624067      -6.52033384      -0.87838178
N       -4.72668970      -5.47878560      -1.79302243
C       -4.24377253      -6.20599047       0.54179357
C       -4.07428926      -7.11196755       1.57355836
C       -3.75451117      -6.35685297       2.73100591
C       -3.74841038      -5.03964049       2.33683494
O       -4.04511837      -4.93733674       1.01676671
H       -5.09305331      -3.21277095      -2.39751733
H       -4.77932412      -2.05689179      -3.70226236
H       -0.96909727      -2.24682898      -3.98983847
H        0.45517801      -0.79750380      -2.57894290
H       -2.38232375      -1.17976564       0.64545164
H       -3.77903543      -2.63866435      -0.74704744
H       -5.63196142      -5.93458121      -4.90960953
H       -4.17006792      -8.18608246       1.49506156
H       -3.55385609      -6.73203503       3.72538280
C       -3.47029550      -3.91575302       3.19306451
C       -3.23737429      -2.97449726       3.91015677
Br      -2.86076038      -1.45256631       5.06963430
O       -6.05886330       3.85546564       4.77787364
C       -5.19949479       4.36681178       4.05028464
C       -4.53223891       3.56282728       2.93798389
O       -3.19845097       3.27837728       3.35764028
C       -2.48810312       2.49857446       2.48884462
C       -1.71948496       1.48331699       3.06134233
C       -0.92069893       0.66614045       2.25756723
C       -0.88196132       0.88196132       0.88196132
C       -1.63008004       1.90807664       0.30636755
C       -2.42970803       2.72287179       1.11296091
N       -4.85734331       5.66623916       4.28968602
C       -4.03265599       6.42949708       3.52081323
S       -3.71317029       8.01366594       4.06943061
N       -2.74807375       8.37565704       2.75089245
C       -2.73423570       7.28132412       1.97939647
N       -3.45649388       6.16088972       2.38111413
C       -1.98069443       7.24033312       0.68694188
C       -1.21587528       8.25577088       0.14105229
C       -0.70231697       7.76468219      -1.08664093
C       -1.18351668       6.48315571      -1.21545647
O       -1.95881724       6.15747075      -0.15059959
H       -4.59405041       4.11345625       1.99583494
H       -5.09207821       2.62678382       2.81961624
H       -1.74379915       1.32584372       4.13612186
H       -0.33093421      -0.12428900       2.71462348
H       -1.58551303       2.09456956      -0.76344484
H       -2.96452380       3.54793740       0.65228602
H       -5.28869168       6.09002331       5.09743717
H       -1.05112891       9.23014428       0.57981563
H       -0.06125696       8.28474133      -1.78548997
C       -0.91335309       5.59958377      -2.31995285
C       -0.68709108       4.85959226      -3.24496857
Br      -0.32124455       3.66308859      -4.74064075
O        3.63153040      -5.37988887       5.68078331
C        4.07940804      -4.32808308       5.20910009
C        3.15007883      -3.28078047       4.60219078
O        3.32086667      -3.32727934       3.18632252
C        2.49800875      -2.48638788       2.49112558
C        1.91027395      -3.01402378       1.33984656
C        1.09296694      -2.21484216       0.53659751
C        0.88196132      -0.88196132       0.88196132
C        1.48348879      -0.34272439       2.01831104
C        2.29926067      -1.14531383       2.82096624
N        5.43201074      -4.14715982       5.23409794
C        6.09221469      -3.01001156       4.88074005
S        7.79710448      -3.05655324       4.94260912
N        7.95099385      -1.46048968       4.46313971
C        6.70736985      -0.99399919       4.29358726
N        5.62854335      -1.84241305       4.52754133
C        6.44819881       0.42106669       3.88083731
C        7.39577097       1.39165519       3.60858267
C        6.68526104       2.57050143       3.26559863
C        5.35104216       2.24906574       3.34923951
O        5.19688544       0.95368942       3.72249238
H        3.35766356      -2.30247755       5.04320049
H        2.12037597      -3.55664329       4.86145902
H        2.08680743      -4.05105062       1.06790667
H        0.63686054      -2.63874912      -0.35434098
H        1.33993823       0.70253858       2.27923810
H        2.79887871      -0.69336850       3.67250001
H        5.97112283      -4.92818393       5.57684540
H        8.46800659       1.25968207       3.65276430
H        7.09990518       3.53118105       2.99178419
C        4.25948469       3.14984403       3.08334335
C        3.34530532       3.90424585       2.86065531
Br       1.86715458       5.12404979       2.50058760
