154
Properties=species:S:1:pos:R:3 pbc="F F F"
C        1.79140963       1.79140963      -1.79140963
C        1.24479553       2.42515407      -2.90421789
C        2.05238243       3.23689722      -3.70691401
C        3.41191396       3.41622229      -3.40875133
C        3.94513336       2.76327399      -2.28681954
C        3.13776516       1.95752486      -1.47734546
C        4.26053177       4.25377662      -4.24315255
O        3.64812381       5.28181086      -4.89718700
N        4.58263918       6.00283196      -5.62141058
C        5.76021618       5.38677995      -5.41101154
C        5.60168742       4.28175691      -4.53870280
C        7.00010388       5.85631211      -6.03756680
O        8.04735225       5.23226382      -5.90545275
N        6.82319678       7.03102610      -6.73011548
C        7.83176569       7.62271680      -7.42944359
S        7.47466671       9.11997267      -8.16651134
N        9.00675818       9.27318638      -8.81228276
C        9.68705427       8.17895053      -8.44773511
N        9.05649498       7.22438563      -7.64941961
C       11.09828720       7.96101887      -8.89857707
C       11.86791538       6.84776907      -8.61238727
C       13.12022758       7.04149744      -9.24503868
C       13.04335189       8.26272212      -9.87323325
Br      14.41318975       9.04428642     -10.87002057
O       11.82421321       8.82651764      -9.67113205
H        0.19562671       2.29570108      -3.15721415
H        1.60891669       3.72032148      -4.57560241
H        4.99262436       2.88557182      -2.01895301
H        3.56882337       1.46891052      -0.60713211
H        6.36952091       3.60573131      -4.19185070
H        5.91066492       7.46671375      -6.71871099
H       11.54984444       5.99772575      -8.02235396
H       13.96876084       6.37185907      -9.24193349
C       -1.79140963      -1.79140963      -1.79140963
C       -1.20786050      -2.62063398      -2.74567301
C       -2.01653597      -3.43168809      -3.54796959
C       -3.41282585      -3.41575276      -3.40830896
C       -3.98174996      -2.56795853      -2.44551842
C       -3.17482860      -1.76191523      -1.63589165
C       -4.26163805      -4.25164644      -4.24417645
O       -3.71594747      -5.41793111      -4.69324308
N       -4.64694238      -6.11512490      -5.44481445
C       -5.75194324      -5.34749265      -5.45857177
C       -5.55299862      -4.16487443      -4.70427409
C       -6.96261290      -5.74971434      -6.18165556
O       -7.92929841      -4.99904578      -6.25672463
N       -6.86043262      -7.01600899      -6.70789674
C       -7.85061707      -7.57418284      -7.45912617
S       -7.60724295      -9.18442002      -7.96948776
N       -9.06302470      -9.24429211      -8.78491052
C       -9.63423894      -8.04222365      -8.63727732
N       -8.98114949      -7.07092361      -7.87822711
C      -10.94545523      -7.72514667      -9.28728124
C      -11.59334475      -6.50425816      -9.23046881
C      -12.78017253      -6.63412596      -9.99246521
C      -12.78981888      -7.92662910     -10.46285928
Br     -14.12652359      -8.66902299     -11.53195017
O      -11.68399708      -8.59456495     -10.04330087
H       -0.12887136      -2.64467245      -2.87499813
H       -1.54303643      -4.06977951      -4.29202465
H       -5.05985619      -2.53515306      -2.30213995
H       -3.63561124      -1.11992344      -0.88933133
H       -6.26211071      -3.36716470      -4.53782750
H       -6.01859539      -7.54739163      -6.53010263
H      -11.23788845      -5.62718332      -8.70485237
H      -13.53058474      -5.87765594     -10.17431273
C       -1.79140963       1.79140963       1.79140963
C       -3.17530588       1.75718964       1.64167198
C       -3.98128628       2.56084027       2.45406710
C       -3.41174186       3.40885358       3.41629213
C       -2.01468830       3.43380900       3.54672959
C       -1.20653717       2.62480010       2.74129821
C       -4.24331196       4.25338384       4.26076514
O       -5.49978165       3.79700960       4.53033042
N       -6.15547103       4.68689989       5.36451081
C       -5.28709054       5.69212294       5.57879418
C       -4.06351804       5.45261852       4.90601058
C       -5.63477957       6.84878522       6.41041800
O       -4.86482905       7.79637450       6.52386526
N       -6.86146555       6.70737778       7.01549503
C       -7.40496592       7.68303010       7.79593006
S       -8.89626106       7.32185963       8.54303004
N       -8.99697859       8.81809338       9.27715535
C       -7.91018762       9.50347473       8.90007757
N       -6.97500425       8.88615406       8.06914190
C       -7.69819881      10.91876694       9.34091739
C       -6.63420404      11.72203895       8.97182872
C       -6.83521805      12.97932764       9.59221800
C       -8.00460598      12.86704466      10.30765662
Br      -8.76775276      14.22430237      11.33544161
O       -8.53527684      11.62528005      10.16130601
H       -3.63753898       1.11217429       0.89882867
H       -5.06088020       2.52459053       2.31936986
H       -1.53751900       4.07183165       4.28779854
H       -0.12691620       2.65216894       2.86578086
H       -3.18642549       6.08311244       4.89756498
H       -7.37550503       5.84836445       6.87222017
H       -5.81869946      11.42755984       8.32366484
H       -6.20503706      13.85481242       9.52270392
C        1.79140963      -1.79140963       1.79140963
C        3.17753140      -1.69140555       1.70523055
C        3.98313351      -2.49534714       2.51771300
C        3.41141833      -3.40906234       3.41640690
C        2.01257573      -3.49952004       3.48313113
C        1.20427002      -2.69063425       2.67773121
C        4.24301567      -4.25414409       4.26030118
O        5.46517463      -3.75696825       4.60497878
N        6.12369365      -4.65438249       5.42880559
C        5.29271020      -5.70437652       5.56092094
C        4.08954299      -5.48758954       4.84501460
C        5.65584226      -6.88110529       6.35703525
O        4.92483713      -7.86486424       6.39536745
N        6.84799871      -6.71455200       7.02178765
C        7.40067137      -7.69995986       7.78329484
S        8.84104397      -7.30909507       8.61101170
N        8.97701141      -8.83094918       9.28426673
C        7.93903093      -9.54463837       8.83007060
N        7.01358772      -8.93136567       7.98534682
C        7.77181314     -10.98597497       9.20009502
C        6.76150910     -11.81671159       8.74985102
C        6.99177134     -13.09071024       9.32428211
C        8.12332218     -12.96060430      10.09538079
Br       8.90169052     -14.32854505      11.09726118
O        8.60377320     -11.69199246      10.02609724
H        3.64182847      -0.99468584       1.01202763
H        5.06480145      -2.40699792       2.43304122
H        1.53313457      -4.18981971       4.17419493
H        0.12261511      -2.76966450       2.75258639
H        3.24264926      -6.15399596       4.77045769
H        7.32881359      -5.82880760       6.93846847
H        5.96212134     -11.52870972       8.07909309
H        6.40486958     -13.98835582       9.18932801
C       -0.00445707       0.01189536      -1.78238275
H       -0.66409135       0.67374010      -2.43557963
H        0.65740317      -0.63156657      -2.45157240
C       -0.90989263      -0.90692880      -0.91072765
C        0.90977584       0.90977584      -0.90977584
C       -0.00465871       1.77757030       0.00794375
H       -0.66225468       2.44313916      -0.64384735
H        0.64322798       2.43503045       0.67728295
C       -1.78241447       0.00034974      -0.00472694
H       -2.45427497      -0.65498947       0.64260836
H       -2.43311707       0.67328779      -0.65473579
C       -0.91132561       0.90220522       0.91563759
C       -0.01476271      -0.02253852       1.78660255
H       -0.67934791      -0.69751639       2.42135241
H        0.63392994       0.61504881       2.47327442
C        0.01484550      -1.77751727      -0.01636693
H        0.67870853      -2.42144646      -0.68295456
H       -0.62264859      -2.45592969       0.64226336
C        1.78714474       0.01002794       0.00389507
H        2.44202412       0.67113390       0.66197326
H        2.45385902      -0.65136977      -0.64189061
C        0.91606151      -0.90478549       0.90901405
