162
Properties=species:S:1:pos:R:3 pbc="F F F"
C        1.79140963       1.79140963      -1.79140963
C        1.24479553       2.42515407      -2.90421789
C        2.05238243       3.23689722      -3.70691401
C        3.41191396       3.41622229      -3.40875133
C        3.94513336       2.76327399      -2.28681954
C        3.13776516       1.95752486      -1.47734546
C        4.26053177       4.25377662      -4.24315255
O        3.64812381       5.28181086      -4.89718700
N        4.58263918       6.00283196      -5.62141058
C        5.76021618       5.38677995      -5.41101154
C        5.60168742       4.28175691      -4.53870280
C        7.00010388       5.85631211      -6.03756680
O        8.04735225       5.23226382      -5.90545275
N        6.82319678       7.03102610      -6.73011548
C        7.83176569       7.62271680      -7.42944359
S        7.47466671       9.11997267      -8.16651134
N        9.00675818       9.27318638      -8.81228276
C        9.68705427       8.17895053      -8.44773511
N        9.05649498       7.22438563      -7.64941961
C       11.09828720       7.96101887      -8.89857707
C       11.86791538       6.84776907      -8.61238727
C       13.12022758       7.04149744      -9.24503868
C       13.04335189       8.26272212      -9.87323325
O       11.82421321       8.82651764      -9.67113205
H        0.19562671       2.29570108      -3.15721415
H        1.60891669       3.72032148      -4.57560241
H        4.99262436       2.88557182      -2.01895301
H        3.56882337       1.46891052      -0.60713211
H        6.36952091       3.60573131      -4.19185070
H        5.91066492       7.46671375      -6.71871099
H       11.54984444       5.99772575      -8.02235396
H       13.96876084       6.37185907      -9.24193349
C       14.10062434       8.86595147     -10.64257669
C       14.98609001       9.37115604     -11.28690182
Br      16.41781312      10.18802912     -12.32872106
C       -1.79140963      -1.79140963      -1.79140963
C       -1.20782013      -2.62113229      -2.74521507
C       -2.01649844      -3.43218433      -3.54751088
C       -3.41282826      -3.41575130      -3.40830802
C       -3.98178948      -2.56746073      -2.44597669
C       -3.17486928      -1.76141656      -1.63634964
C       -4.26164046      -4.25164078      -4.24417969
O       -3.71618247      -5.41824770      -4.69269149
N       -4.64715974      -6.11538336      -5.44433863
C       -5.75190720      -5.34739760      -5.45870286
C       -5.55282369      -4.16459948      -4.70472397
C       -6.96247281      -5.74946133      -6.18204865
O       -7.92889058      -4.99850394      -6.25767430
N       -6.86053248      -7.01595954      -6.70784635
C       -7.85065432      -7.57405597      -7.45921579
S       -7.60763679      -9.18453727      -7.96897667
N       -9.06317357      -9.24420194      -8.78485181
C       -9.63404596      -8.04190066      -8.63779329
N       -8.98088770      -7.07056632      -7.87884620
C      -10.94494871      -7.72460953      -9.28832489
C      -11.59246084      -6.50349280      -9.23211808
C      -12.77908368      -6.63322301      -9.99445700
C      -12.78899655      -7.92587536     -10.46443535
O      -11.68352732      -8.59403346     -10.04430211
H       -0.12879699      -2.64556230      -2.87418265
H       -1.54296468      -4.07067029      -4.29120562
H       -5.05993143      -2.53425945      -2.30295832
H       -3.63568569      -1.11903354      -0.89014677
H       -6.26173108      -3.36660611      -4.53876573
H       -6.01892518      -7.54755727      -6.52960720
H      -11.23689061      -5.62636287      -8.70667067
H      -13.52919169      -5.87656886     -10.17679286
C      -13.82061432      -8.49880518     -11.28973300
C      -14.68459419      -8.97863390     -11.98091978
Br     -16.08157658      -9.75447636     -13.09851036
C       -1.79140963       1.79140963       1.79140963
C       -3.17484325       1.76305543       1.63626882
C       -3.98085707       2.56668164       2.44865494
C       -3.41177027       3.40883628       3.41628102
C       -2.01514101       3.42794927       3.55213662
C       -1.20700355       2.61893001       2.74670192
C       -4.24334034       4.25331717       4.26080342
O       -5.50256240       3.80072928       4.52382998
N       -6.15804206       4.68993588       5.35890378
C       -5.28666286       5.69100527       5.58033953
C       -4.06144705       5.44938728       4.91131281
C       -5.63312014       6.84581134       6.41505132
O       -4.86000335       7.79000870       6.53505677
N       -6.86264211       6.70679298       7.01490327
C       -7.40540192       7.68153597       7.79698819
S       -8.90091014       7.32322885       8.53701174
N       -8.99873229       8.81702816       9.27646687
C       -7.90790234       9.49967874       8.90615883
N       -6.97190634       8.88195612       8.07643774
C       -7.69220913      10.91245911       9.35321490
C       -6.62375630      11.71305541       8.99126001
C       -6.82234902      12.96873034       9.61568434
C       -7.99488501      12.85819618      10.32622607
O       -8.52972093      11.61903774      10.17310424
H       -3.63668592       1.12264911       0.88920690
H       -5.06005807       2.53507618       2.30970633
H       -1.53838222       4.06131261       4.29745438
H       -0.12777027       2.64169353       2.87540220
H       -3.18193199       6.07654857       4.90862236
H       -7.37939990       5.85030488       6.86638487
H       -5.80690616      11.41793093       8.34508706
H       -6.18857455      13.84205631       9.55192255
C       -8.58293308      13.90497382      11.12124559
C       -9.07542334      14.78165009      11.78707444
Br      -9.87173844      16.19916147      12.86366338
C        1.79140963      -1.79140963       1.79140963
C        3.17756170      -1.69658321       1.70002258
C        3.98319383      -2.50050071       2.51249911
C        3.41144413      -3.40904488       3.41639856
C        2.01253642      -3.49434848       3.48834200
C        1.20424296      -2.68545252       2.68294001
C        4.24303746      -4.25408338       4.26034010
O        5.46813569      -3.76000367       4.59898230
N        6.12639888      -4.65683568       5.42364716
C        5.29221079      -5.70343156       5.56236531
C        4.08730054      -5.48492493       4.84992167
C        5.65401441      -6.87863301       6.36133538
O        4.91970573      -7.85967486       6.40568823
N        6.84907749      -6.71394464       7.02131623
C        7.40096812      -7.69861536       7.78434261
S        8.84560341      -7.30992004       8.60562728
N        8.97860375      -8.82987427       9.28374931
C        7.93653787      -9.54149614       8.83570591
N        7.01028458      -8.92793672       7.99207891
C        7.76557252     -10.98093026       9.21138035
C        6.75078647     -11.80968159       8.76760366
C        6.97860146     -13.08246131       9.34570092
C        8.11330593     -12.95363404      10.11236729
O        8.59795297     -11.68697018      10.03693976
H        3.64185683      -1.00393402       1.00275109
H        5.06486028      -2.41625310       2.42372721
H        1.53311236      -4.18053195       4.18350489
H        0.12258767      -2.76041573       2.76186261
H        3.23781978      -6.14860622       4.78067692
H        7.33269734      -5.83019396       6.93319836
H        5.95005900     -11.52122266       8.09864249
H        6.38808675     -13.97850485       9.21596181
C        8.71308061     -14.00883212      10.88723977
C        9.21539191     -14.89256050      11.53619547
Br      10.02758679     -16.32147456      12.58550195
C       -0.00445707       0.01189536      -1.78238275
H       -0.66409135       0.67374010      -2.43557963
H        0.65740317      -0.63156657      -2.45157240
C       -0.90989263      -0.90692880      -0.91072765
C        0.90977584       0.90977584      -0.90977584
C       -0.00465871       1.77757030       0.00794375
H       -0.66225468       2.44313916      -0.64384735
H        0.64322798       2.43503045       0.67728295
C       -1.78241447       0.00034974      -0.00472694
H       -2.45427497      -0.65498947       0.64260836
H       -2.43311707       0.67328779      -0.65473579
C       -0.91132561       0.90220522       0.91563759
C       -0.01476271      -0.02253852       1.78660255
H       -0.67934791      -0.69751639       2.42135241
H        0.63392994       0.61504881       2.47327442
C        0.01484550      -1.77751727      -0.01636693
H        0.67870853      -2.42144646      -0.68295456
H       -0.62264859      -2.45592969       0.64226336
C        1.78714474       0.01002794       0.00389507
H        2.44202412       0.67113390       0.66197326
H        2.45385902      -0.65136977      -0.64189061
C        0.91606151      -0.90478549       0.90901405
