133
Properties=species:S:1:pos:R:3 pbc="F F F"
C        0.00000000       0.00000000       0.00000000
C        0.88150560       0.88150560      -0.88150560
C        0.33489151       1.51525005      -1.99431386
C        1.14247840       2.32699320      -2.79700998
C        2.50200993       2.50631826      -2.49884730
C        3.03522934       1.85336997      -1.37691552
C        2.22786114       1.04762084      -0.56744143
C        3.35062774       3.34387259      -3.33324852
O        2.73821978       4.37190683      -3.98728297
N        3.67273516       5.09292794      -4.71150656
C        4.85031215       4.47687592      -4.50110751
C        4.69178340       3.37185288      -3.62879878
C        6.09019986       4.94640809      -5.12766277
O        7.13744822       4.32235980      -4.99554873
N        5.91329276       6.12112208      -5.82021145
C        6.92186166       6.71281278      -6.51953957
S        6.56476269       8.21006865      -7.25660732
N        8.09685416       8.36328235      -7.90237874
C        8.77715025       7.26904650      -7.53783109
N        8.14659095       6.31448160      -6.73951558
C       10.18838317       7.05111484      -7.98867305
C       10.95801135       5.93786505      -7.70248324
C       12.21032355       6.13159341      -8.33513465
C       12.13344787       7.35281810      -8.96332923
Br      13.50328573       8.13438239      -9.96011655
O       10.91430919       7.91661361      -8.76122803
H       -0.71427731       1.38579706      -2.24731012
H        0.69901267       2.81041746      -3.66569839
H        4.08272034       1.97566780      -1.10904899
H        2.65891935       0.55900650       0.30277191
H        5.45961688       2.69582729      -3.28194668
H        5.00076089       6.55680972      -5.80880697
H       10.63994042       5.08782172      -7.11244993
H       13.05885682       5.46195505      -8.33202947
C       -0.88150560      -0.88150560      -0.88150560
C       -0.49170964      -2.18783760      -1.16490818
C       -1.30337450      -2.99556621      -1.96754087
C       -2.50561069      -2.50329087      -2.49827394
C       -2.87715463      -1.18184107      -2.20651912
C       -2.07144092      -0.37440874      -1.39707374
C       -3.35231943      -3.33533618      -3.34009325
O       -3.29939852      -4.67981394      -3.11819712
N       -4.17603595      -5.33261239      -3.96852132
C       -4.74295478      -4.36862156      -4.71671924
C       -4.25605630      -3.09108327      -4.34529549
C       -5.72621829      -4.67848591      -5.75956652
O       -6.16702882      -3.79798823      -6.49033970
N       -6.06745179      -6.01045370      -5.77672080
C       -6.92970381      -6.52921728      -6.69529291
S       -7.31588150      -8.18353666      -6.53202050
N       -8.31916382      -8.17672328      -7.86662815
C       -8.28744818      -6.93350697      -8.36307270
N       -7.51932431      -5.96542785      -7.71583598
C       -9.04537073      -6.57812155      -9.60467878
C       -9.04216464      -5.33820413     -10.21799088
C       -9.86853820      -5.44521963     -11.36329378
C      -10.33197348      -6.74019298     -11.37742873
Br     -11.47453504      -7.45650660     -12.66674303
O       -9.83897647      -7.43419770     -10.31897666
H        0.43828141      -2.58790698      -0.76920430
H       -0.98007149      -4.01254321      -2.18251382
H       -3.80654414      -0.76822965      -2.59266334
H       -2.38305359       0.64320815      -1.17530849
H       -4.53145169      -2.13653063      -4.76940853
H       -5.66063455      -6.62313386      -5.08260918
H       -8.49709186      -4.46803581      -9.87508440
H      -10.09404014      -4.67325338     -12.08554781
C       -0.88150560       0.88150560       0.88150560
C       -2.08538875       0.38485223       1.37421444
C       -2.88848082       1.19168104       2.18631973
C       -2.49924436       2.50139005       2.50654108
C       -1.28570226       2.98548515       1.99432741
C       -0.47638382       2.17780418       1.18873541
C       -3.33278257       3.34965594       3.34531036
O       -4.12068101       2.71620510       4.26052348
N       -4.82780175       3.64950240       4.99986551
C       -4.47106122       4.84980262       4.50743175
C       -3.52139764       4.70488787       3.46614956
C       -5.03488409       6.09795293       5.03143370
O       -4.76561076       7.17628989       4.51345610
N       -5.83894823       5.88856613       6.12711193
C       -6.50416979       6.90357847       6.74646575
S       -7.39492286       6.49333223       8.14318357
N       -7.92692532       8.05861660       8.37697333
C       -7.41529233       8.78996563       7.37876988
N       -6.58995965       8.17073083       6.43989765
C       -7.73110598      10.24797016       7.24909492
C       -7.28848007      11.07636448       6.23351509
C       -7.83336335      12.35944805       6.48424022
C       -8.56956874      12.24007058       7.63995586
Br      -9.51778295      13.62451182       8.45548991
O       -8.51547894      10.96678719       8.10988469
H       -2.40928477      -0.62459005       1.13413515
H       -3.82862321       0.78823708       2.55826823
H       -0.94655186       3.99253988       2.22834540
H        0.46473178       2.56921013       0.81067558
H       -3.05672324       5.49124186       2.88942575
H       -5.93854117       4.94658260       6.48125381
H       -6.65406398      10.77718876       5.40895934
H       -7.70412545      13.25533610       5.89337978
C        0.88150560      -0.88150560       0.88150560
C        2.03876237      -1.44993296       0.35576010
C        2.84796667      -2.25211232       1.16640259
C        2.50446512      -2.49806288       2.50464750
C        1.33050598      -1.92156879       3.01344005
C        0.52368592      -1.11191958       2.20731791
C        3.33765848      -3.33739216       3.35269822
O        4.66875490      -3.37048361       3.05817107
N        5.33177000      -4.18145061       3.96394904
C        4.38301983      -4.65040581       4.79486995
C        3.11004756      -4.13415796       4.44822954
C        4.70263634      -5.57098457       5.89064981
O        3.81510171      -6.05702706       6.58322797
N        6.05601196      -5.77461316       6.02400117
C        6.57582867      -6.63009592       6.94828942
S        8.27791123      -6.70926223       7.04426520
N        8.24913360      -7.85372598       8.25965567
C        6.95979574      -8.11846963       8.50576247
N        5.97900524      -7.43205180       7.78953110
C        6.56227938      -9.14720079       9.51869089
C        5.26357964      -9.52183468       9.81294533
C        5.34240455     -10.52941126      10.80523581
C        6.68215998     -10.70499704      11.06243817
Br       7.38815573     -11.91387965      12.29574930
O        7.42860935      -9.87489719      10.28864429
H        2.32096552      -1.27756043      -0.67969608
H        3.74618943      -2.69213585       0.73680324
H        1.03647618      -2.08231357       4.04864738
H       -0.37622542      -0.66694645       2.62443290
H        2.16727416      -4.33383890       4.93627778
H        6.68373517      -5.27110245       5.41153997
H        4.37189421      -9.11506924       9.35324863
H        4.52310311     -11.05917355      11.27056467
