162
Properties=species:S:1:pos:R:3 pbc="F F F"
C        1.79035017       1.79035017      -1.79035017
C        1.51977024       3.14888435      -1.90816793
C        2.33002353       3.94850541      -2.72223991
C        3.43933694       3.41850531      -3.39951918
C        3.66454858       2.04019051      -3.29160537
C        2.85549597       1.22965220      -2.48536803
N        4.16613488       4.26546310      -4.25247013
C        5.57317400       3.93656232      -4.58256685
H        6.03598468       3.38728418      -3.75245888
N        5.43572600       3.07733740      -5.74019075
C        6.26913244       2.00618111      -5.93819097
O        7.17603937       1.74156992      -5.15616011
C        6.03426581       1.14331042      -7.13404406
C        4.89180580       1.23528912      -7.94012292
C        4.74147256       0.39112351      -9.04663216
C        5.72523523      -0.55042350      -9.34459783
C        6.85817606      -0.66312530      -8.54407676
C        7.01099895       0.18129596      -7.44200279
C        6.45745444       5.22921377      -4.84165073
Cl       5.79479535       6.19301574      -6.22113274
Cl       6.41655783       6.29630728      -3.38428888
Cl       8.16901536       4.85001486      -5.20424254
H        0.68176544       3.59487573      -1.38157326
H        2.08315502       5.00447504      -2.81541082
H        4.47292546       1.55226446      -3.82747401
H        3.06667966       0.16456959      -2.41760584
H        4.07508492       5.23229868      -3.93504989
H        4.67012744       3.30592347      -6.35224781
H        4.09253818       1.93794750      -7.72826646
H        3.85091149       0.47287413      -9.66556478
H        7.62633795      -1.39937780      -8.76442362
H        7.89974842       0.08454986      -6.81924688
C        5.56610951      -1.41499017     -10.48512554
C        5.43284172      -2.13906476     -11.44031750
Br       5.21735897      -3.30983213     -12.98478212
C       -1.79035017      -1.79035017      -1.79035017
C       -2.58776311      -1.21559977      -2.77345963
C       -3.39638288      -2.03073105      -3.57365492
C       -3.39640721      -3.42735809      -3.43359613
C       -2.61170214      -3.97435143      -2.41029090
C       -1.80433774      -3.16701932      -1.59915914
N       -4.28387745      -4.17611686      -4.22407381
C       -3.99594389      -5.60536333      -4.49099595
H       -2.91195359      -5.77831928      -4.48545488
N       -4.61765077      -6.27069322      -3.36491016
C       -4.05017466      -7.37713269      -2.78619716
O       -3.00505535      -7.86094475      -3.20776930
C       -4.73109594      -7.97911895      -1.60140540
C       -5.78736175      -7.35937603      -0.92048005
C       -6.37679632      -7.98616332       0.18373141
C       -5.90790450      -9.22614112       0.61463606
C       -4.84968204      -9.84653770      -0.04290777
C       -4.26335417      -9.22378555      -1.14715798
C       -4.54103028      -6.08440654      -5.90288212
Cl      -6.33421142      -5.87133416      -6.00339826
Cl      -3.81486349      -5.07142622      -7.21086427
Cl      -4.16757598      -7.79908149      -6.25661530
H       -2.59594849      -0.14027076      -2.92199518
H       -4.02833063      -1.55401037      -4.32069988
H       -2.60096088      -5.04139883      -2.21030422
H       -1.20011900      -3.62802635      -0.82070974
H       -4.48435958      -3.66964493      -5.08842897
H       -5.46187564      -5.83881780      -3.02760528
H       -6.16533696      -6.38410540      -1.20930978
H       -7.19683648      -7.49581144       0.70329752
H       -4.47272671     -10.80946604       0.29080898
H       -3.43380988      -9.71530257      -1.65443271
C       -6.51921991      -9.86705595       1.75003099
C       -7.03119658     -10.40382212       2.70092424
Br      -7.85901953     -11.27172762       4.23843820
C       -1.79035017       1.79035017       1.79035017
C       -2.23301622       1.32172933       3.02207697
C       -3.04473290       2.13459809       3.82143786
C       -3.39665553       3.43461230       3.42609360
C       -2.96717529       3.86499328       2.16417589
C       -2.16052436       3.05678124       1.35321059
N       -4.26995685       4.16710658       4.24700468
C       -4.27845155       5.64710173       4.16674989
H       -3.28546314       6.01396761       3.87629699
N       -5.23783694       5.90289729       3.11251992
C       -5.06277720       6.93006937       2.22065794
O       -4.09932915       7.68586472       2.28857553
C       -6.07489613       7.10063737       1.13608679
C       -7.06588339       6.15257267       0.84876177
C       -7.98138824       6.38273824      -0.18489826
C       -7.90383935       7.55332582      -0.93775561
C       -6.91551876       8.49692897      -0.67332021
C       -6.00391197       8.27004066       0.36034507
C       -4.64571486       6.33128272       5.55132136
Cl      -6.28827005       5.81539247       6.10528131
Cl      -3.47150594       5.80574258       6.81990547
Cl      -4.62289184       8.11990387       5.48047705
H       -1.96225678       0.32873935       3.36721829
H       -3.39660259       1.73547994       4.77095835
H       -3.24320591       4.83856280       1.77089522
H       -1.83733467       3.42838667       0.38313375
H       -4.18119828       3.84780233       5.21343288
H       -6.00590927       5.25395346       3.06843599
H       -7.14502350       5.21847983       1.39524881
H       -8.74690084       5.64002908      -0.39757952
H       -6.84288502       9.40858714      -1.26008839
H       -5.23190530       9.01277652       0.55886334
C       -8.84936055       7.78560082      -1.99871649
C       -9.64123455       7.98013114      -2.88727123
Br     -10.92162784       8.29467020      -4.32398909
C        1.79035017      -1.79035017       1.79035017
C        1.21191611      -2.73914547       2.62576094
C        2.02724831      -3.53950817       3.43401238
C        3.42643493      -3.43434503       3.39658147
C        3.97842302      -2.44437745       2.57354399
C        3.17118251      -1.63324878       1.76608490
N        4.17763657      -4.22142412       4.28500743
C        5.59234814      -4.53081090       3.96914413
H        5.73831520      -4.55594545       2.88146711
N        6.30015570      -3.40687249       4.54622596
C        7.40585318      -2.86988910       3.93776224
O        7.85306982      -3.32868067       2.89201891
C        8.05325911      -1.68426145       4.57409974
C        7.47677903      -0.96261478       5.62782403
C        8.14473100       0.13963843       6.17413565
C        9.38274855       0.52797209       5.66463311
C        9.96040173      -0.17037112       4.60835466
C        9.29655893      -1.27268807       4.06505069
C        6.05035193      -5.94052519       4.53744182
Cl       5.87965986      -5.99206156       6.33722240
Cl       4.98807761      -7.24012469       3.86895168
Cl       7.74607610      -6.34586449       4.13133218
H        0.13383113      -2.86058901       2.66379429
H        1.54840104      -4.25884947       4.09579037
H        5.04941894      -2.27136972       2.53187527
H        3.63578054      -0.88145609       1.13161847
H        3.65544886      -5.06775561       4.51922901
H        5.89778758      -3.03847709       5.39203405
H        6.50449707      -1.21776856       6.03648651
H        7.68775145       0.69105391       6.99265286
H       10.92146590       0.12997490       4.19989278
H        9.75476494      -1.81207980       3.23670042
C       10.06612323       1.66156983       6.23169148
C       10.63844952       2.61095794       6.70660288
Br      11.56385274       4.14603822       7.47449443
C       -0.00445707       0.01189536      -1.78238275
H       -0.66409135       0.67374010      -2.43557963
H        0.65740317      -0.63156657      -2.45157240
C       -0.90989263      -0.90692880      -0.91072765
C        0.90977584       0.90977584      -0.90977584
C       -0.00465871       1.77757030       0.00794375
H       -0.66225468       2.44313916      -0.64384735
H        0.64322798       2.43503045       0.67728295
C       -1.78241447       0.00034974      -0.00472694
H       -2.45427497      -0.65498947       0.64260836
H       -2.43311707       0.67328779      -0.65473579
C       -0.91132561       0.90220522       0.91563759
C       -0.01476271      -0.02253852       1.78660255
H       -0.67934791      -0.69751639       2.42135241
H        0.63392994       0.61504881       2.47327442
C        0.01484550      -1.77751727      -0.01636693
H        0.67870853      -2.42144646      -0.68295456
H       -0.62264859      -2.45592969       0.64226336
C        1.78714474       0.01002794       0.00389507
H        2.44202412       0.67113390       0.66197326
H        2.45385902      -0.65136977      -0.64189061
C        0.91606151      -0.90478549       0.90901405
