141
Properties=species:S:1:pos:R:3 pbc="F F F"
C        0.00000000       0.00000000       0.00000000
C        0.88044615       0.88044615      -0.88044615
C        0.60986621       2.23898032      -0.99826391
C        1.42011951       3.03860139      -1.81233589
C        2.52943292       2.50860129      -2.48961515
C        2.75464455       1.13028649      -2.38170135
C        1.94559194       0.31974818      -1.57546401
N        3.25623086       3.35555908      -3.34256611
C        4.66326997       3.02665830      -3.67266282
H        5.12608066       2.47738016      -2.84255486
N        4.52582198       2.16743338      -4.83028673
C        5.35922841       1.09627708      -5.02828695
O        6.26613535       0.83166589      -4.24625608
C        5.12436179       0.23340639      -6.22414004
C        3.98190178       0.32538509      -7.03021889
C        3.83156853      -0.51878052      -8.13672813
C        4.81533121      -1.46032752      -8.43469380
C        5.94827203      -1.57302933      -7.63417274
C        6.10109493      -0.72860807      -6.53209877
C        5.54755041       4.31930974      -3.93174671
Cl       4.88489132       5.28311172      -5.31122872
Cl       5.50665381       5.38640325      -2.47438485
Cl       7.25911134       3.94011084      -4.29433851
H       -0.22813859       2.68497170      -0.47166924
H        1.17325100       4.09457102      -1.90550679
H        3.56302144       0.64236044      -2.91756998
H        2.15677564      -0.74533444      -1.50770182
H        3.16518089       4.32239465      -3.02514587
H        3.76022342       2.39601944      -5.44234379
H        3.18263416       1.02804347      -6.81836243
H        2.94100747      -0.43702990      -8.75566076
H        6.71643393      -2.30928183      -7.85451959
H        6.98984440      -0.82535417      -5.90934286
C        4.65620549      -2.32489420      -9.57522152
C        4.52293769      -3.04896879     -10.53041348
Br       4.30745494      -4.21973616     -12.07487809
C       -0.88044615      -0.88044615      -0.88044615
C       -0.95106088      -0.64695294      -2.24909662
C       -1.76543551      -1.45678140      -3.04883988
C       -2.49024847      -2.52996140      -2.50743948
C       -2.42875435      -2.71725407      -1.12062396
C       -1.62255736      -1.90807645      -0.31017032
N       -3.33963466      -3.25668941      -3.35803197
C       -3.72059528      -4.64328747      -2.99870834
H       -2.92070935      -5.11331462      -2.41199171
N       -4.89788086      -4.44719644      -2.17846478
C       -5.15121983      -5.24246291      -1.09010970
O       -4.40433580      -6.16325730      -0.77646422
C       -6.36392091      -4.94782844      -0.27015887
C       -7.13282117      -3.78587590      -0.41880869
C       -8.25822070      -3.57882736       0.38753191
C       -8.61216502      -4.52528527       1.34775280
C       -7.84913204      -5.67695293       1.51666953
C       -6.72823040      -5.88636896       0.71001373
C       -3.96846314      -5.55765334      -4.27249039
Cl      -5.29940772      -4.88442206      -5.29540198
Cl      -2.48043132      -5.59033373      -5.29667687
Cl      -4.39235953      -7.24608846      -3.85511270
H       -0.38725835       0.16197399      -2.70321799
H       -1.82083202      -1.23872523      -4.11377156
H       -3.00215175      -3.49506925      -0.62573086
H       -1.59175294      -2.08947723       0.76208715
H       -2.99197080      -3.20349157      -4.31725904
H       -5.48015874      -3.67141302      -2.44701489
H       -6.87725128      -3.01420128      -1.13758751
H       -8.84789098      -2.67364032       0.26189298
H       -8.11323015      -6.41630888       2.26786733
H       -6.13511786      -6.78941172       0.85069649
C       -9.77188049      -4.30786863       2.17321632
C      -10.74314220      -4.12578220       2.86454201
Br     -12.31359024      -3.83136383       3.98235720
C       -0.88044615       0.88044615       0.88044615
C       -2.21791752       0.55458916       1.07460377
C       -3.01986669       1.37095231       1.88023778
C       -2.49685418       2.49860390       2.53219128
C       -1.15622542       2.82271850       2.28768846
C       -0.34679913       2.01658426       1.47742073
N       -3.37587758       3.30955458       3.26892388
C       -2.84079744       4.17549818       4.34629548
H       -1.94201244       3.72106580       4.78293743
N       -2.49676608       5.39012015       3.63665585
C       -1.38770975       6.12406203       3.97202066
O       -0.65221419       5.79518369       4.89665944
C       -1.07788218       7.34059747       3.16342857
C       -1.72426789       7.65311889       1.96011898
C       -1.37945626       8.81328633       1.25677355
C       -0.38460857       9.65716709       1.74792184
C        0.27623599       9.35156635       2.93408508
C       -0.06971464       8.19620683       3.63866415
C       -3.87903748       4.39210332       5.52746606
Cl      -5.39222630       5.17125077       4.91575469
Cl      -4.35234116       2.79286933       6.22223142
Cl      -3.23362097       5.40500484       6.85493488
H       -2.64913281      -0.32219391       0.60156345
H       -4.06913892       1.10650719       1.99768270
H       -0.69765927       3.70814727       2.71714531
H        0.69304933       2.29399227       1.31820008
H       -4.16402488       2.74955649       3.59914004
H       -3.10577886       5.62291049       2.86989730
H       -2.48658122       7.01040924       1.53204961
H       -1.88917108       9.04587118       0.32459607
H        1.05825429       9.99962084       3.32030515
H        0.45443508       7.96328158       4.56498659
C       -0.03526107      10.85017857       1.02109316
C        0.25731745      11.84932569       0.41237414
Br       0.73039218      13.46486208      -0.57187302
C        0.88044615      -0.88044615       0.88044615
C        1.08842889      -2.21350536       0.54517619
C        1.89394353      -3.01554419       1.36156906
C        2.53217439      -2.49657672       2.49889825
C        2.27383800      -1.16076189       2.83203249
C        1.46354312      -0.35136999       2.02589102
N        3.26947936      -3.37620880       3.30866788
C        4.33516132      -2.83947783       4.18795195
H        4.76803899      -1.93335926       3.74461743
N        3.61266556      -2.51145665       5.39941987
C        3.93269965      -1.40582125       6.14527154
O        4.85386364      -0.65999415       5.83019953
C        3.11152746      -1.11283524       7.35754552
C        1.91110445      -1.77172536       7.65467595
C        1.19534599      -1.44241817       8.81175199
C        1.67119597      -0.45061223       9.66788929
C        2.85429614       0.22253637       9.37765568
C        3.57125791      -0.10793962       8.22538809
C        5.52311235      -3.86968975       4.40580476
Cl       4.91761373      -5.39432260       5.16729543
Cl       6.23499071      -4.32389220       2.80855901
Cl       6.83674032      -3.22178775       5.43503262
H        0.62626066      -2.64129387      -0.33905218
H        2.02230969      -4.06156986       1.08944926
H        2.69212640      -0.70605664       3.72476882
H        1.29337551       0.68477928       2.31054679
H        3.61086866      -4.15690618       2.74494658
H        2.84911100      -3.12870418       5.62077147
H        1.49472871      -2.53216805       7.00214331
H        0.26555812      -1.96173994       9.03234026
H        3.22861707       1.00229227      10.03534689
H        4.49507365       0.42577050       8.00452994
C        0.93164665      -0.11723726      10.85764890
C        0.31227409       0.16196428      11.85407257
Br      -0.68919895       0.61340955      13.46520538
