133
Properties=species:S:1:pos:R:3 pbc="F F F"
C        0.00000000       0.00000000       0.00000000
C        0.88044615       0.88044615      -0.88044615
C        0.60986621       2.23898032      -0.99826391
C        1.42011951       3.03860139      -1.81233589
C        2.52943292       2.50860129      -2.48961515
C        2.75464455       1.13028649      -2.38170135
C        1.94559194       0.31974818      -1.57546401
N        3.25623086       3.35555908      -3.34256611
C        4.66326997       3.02665830      -3.67266282
H        5.12608066       2.47738016      -2.84255486
N        4.52582198       2.16743338      -4.83028673
C        5.35922841       1.09627708      -5.02828695
O        6.26613535       0.83166589      -4.24625608
C        5.12436179       0.23340639      -6.22414004
C        3.98190178       0.32538509      -7.03021889
C        3.83156853      -0.51878052      -8.13672813
C        4.81533121      -1.46032752      -8.43469380
Br       4.60654992      -2.59468430      -9.93112592
C        5.94827203      -1.57302933      -7.63417274
C        6.10109493      -0.72860807      -6.53209877
C        5.54755041       4.31930974      -3.93174671
Cl       4.88489132       5.28311172      -5.31122872
Cl       5.50665381       5.38640325      -2.47438485
Cl       7.25911134       3.94011084      -4.29433851
H       -0.22813859       2.68497170      -0.47166924
H        1.17325100       4.09457102      -1.90550679
H        3.56302144       0.64236044      -2.91756998
H        2.15677564      -0.74533444      -1.50770182
H        3.16518089       4.32239465      -3.02514587
H        3.76022342       2.39601944      -5.44234379
H        3.18263416       1.02804347      -6.81836243
H        2.94100747      -0.43702990      -8.75566076
H        6.71643393      -2.30928183      -7.85451959
H        6.98984440      -0.82535417      -5.90934286
C       -0.88044615      -0.88044615      -0.88044615
C       -0.31936102      -1.93269569      -1.59505374
C       -1.13402405      -2.73258341      -2.40444932
C       -2.51935860      -2.52201994      -2.48627081
C       -3.04996764      -1.43177246      -1.78489229
C       -2.24243398      -0.62064932      -0.97772084
N       -3.26330797      -3.31980205      -3.37124603
C       -4.71755316      -3.49805687      -3.14698106
H       -4.94476104      -3.42578303      -2.07547161
N       -5.28929639      -2.37451396      -3.85973174
C       -6.39057901      -1.71087032      -3.38234312
O       -6.94866503      -2.05084811      -2.34454418
C       -6.89300606      -0.53516293      -4.15373923
C       -6.18492378       0.05596680      -5.20854879
C       -6.72103710       1.15746451      -5.88594355
C       -7.95839531       1.67520790      -5.50651008
Br      -8.67664456       3.16063912      -6.42698611
C       -8.66597840       1.10753386      -4.45097091
C       -8.13373361       0.00603619      -3.77688820
C       -5.24313059      -4.91093593      -3.64454034
Cl      -4.94499883      -5.11788840      -5.41634453
Cl      -4.33971250      -6.22793921      -2.79979021
Cl      -6.99101054      -5.15670487      -3.34584528
H        0.74551337      -2.13584408      -1.53817164
H       -0.66647599      -3.53558666      -2.97126616
H       -4.10396120      -1.17759663      -1.84139403
H       -2.69122431       0.21139246      -0.43931117
H       -2.79426258      -4.21823248      -3.50022636
H       -4.79770866      -2.10519459      -4.69568340
H       -5.20856900      -0.30179087      -5.51868019
H       -6.16261268       1.60687435      -6.70389999
H       -9.62757224       1.50937541      -4.14347486
H       -8.69314507      -0.43054834      -2.95013968
C       -0.88044615       0.88044615       0.88044615
C       -0.40201305       2.10039655       1.34470084
C       -1.21503758       2.89977416       2.15624504
C       -2.52433059       2.51667003       2.48664873
C       -2.96507961       1.26587834       2.03567444
C       -2.15692228       0.45489378       1.22898806
N       -3.25750885       3.33578962       3.36105758
C       -4.73838671       3.27435948       3.34984491
H       -5.09616595       3.00117636       2.34867337
N       -5.01971111       2.21146039       4.29237058
C       -6.05573647       1.33508233       4.09297365
O       -6.79823677       1.42481073       3.12100983
C       -6.25290411       0.24009189       5.08891222
C       -5.32128683      -0.07181393       6.08803287
C       -5.57616481      -1.11392018       6.98727151
C       -6.75507454      -1.85071351       6.88533646
Br      -7.09321060      -3.25428757       8.10406853
C       -7.68255399      -1.56178430       5.88864576
C       -7.43100250      -0.51968011       4.99326324
C       -5.40967638       4.66281797       3.72611252
Cl      -4.90787439       5.18936197       5.38199540
Cl      -4.85319930       5.93929988       2.57494274
Cl      -7.19861133       4.61513728       3.67981209
H        0.59863411       2.43620614       1.09093032
H       -0.80849723       3.83959826       2.52523332
H       -3.94698443       0.88162238       2.29434504
H       -2.53658042      -0.50619703       0.88875964
H       -2.92492352       4.29910045       3.28869744
H       -4.38124676       2.14939366       5.06794622
H       -4.38145877       0.46164544       6.18593586
H       -4.84604552      -1.34572333       7.75931613
H       -8.60054258      -2.13588722       5.79701633
H       -8.16124422      -0.30195535       4.21454422
C        0.88044615      -0.88044615       0.88044615
C        0.31216312      -1.90187681       1.63307051
C        1.12704611      -2.70189635       2.44211432
C        2.51850179      -2.52279423       2.48635335
C        3.05753442      -1.46234514       1.74675283
C        2.25009361      -0.65121553       0.93949500
N        3.26457493      -3.31723949       3.37254162
C        4.70843714      -3.53556773       3.11858623
H        4.91148522      -3.49391258       2.04061788
N        5.32331393      -2.40967359       3.79055456
C        6.42807434      -1.78403792       3.27168018
O        6.95295783      -2.16155604       2.22954346
C        6.97630511      -0.60296943       4.00263368
C        6.30780683       0.02955933       5.05925826
C        6.88570804       1.13344717       5.69725528
C        8.12539843       1.61229434       5.27659340
Br       8.90017102       3.10122580       6.14404633
C        8.79393023       1.00320295       4.21868816
C        8.21997490      -0.10070009       3.58391064
C        5.21253799      -4.94860394       3.63746493
Cl       4.95226198      -5.10673975       5.42023003
Cl       4.25846800      -6.26298103       2.84599289
Cl       6.94649959      -5.24320339       3.30385771
H       -0.75824025      -2.08067738       1.60606522
H        0.65454297      -3.47993202       3.03885381
H        4.11825035      -1.23229355       1.77240796
H        2.70521246       0.15695871       0.37088927
H        2.77782568      -4.20087824       3.53401749
H        4.85838837      -2.10910325       4.63109503
H        5.33106001      -0.29728367       5.40069638
H        6.35777381       1.61518934       6.51705385
H        9.75702131       1.37452118       3.87917157
H        8.74898523      -0.56985401       2.75499386
