129
Properties=species:S:1:pos:R:3 pbc="F F F"
C        0.00000000       0.00000000       0.00000000
C        0.88187489       0.88187489      -0.88187489
C        0.57838461       1.03146137      -2.23311924
C        1.38187278       1.84221892      -3.03819655
C        2.48939222       2.51205865      -2.49536197
C        2.78799385       2.34014011      -1.13493307
C        1.98412197       1.53018130      -0.32923819
C        3.35282694       3.39348976      -3.36502316
S        4.66691912       2.44796898      -4.18416226
C        5.43585053       3.72094081      -5.07938189
N        5.05781286       4.98266138      -5.08184253
N        5.93139165       5.65715050      -5.91031191
C        6.78632020       4.75985404      -6.35744989
O        6.53047196       3.50417462      -5.87307817
C        7.92712460       4.91323529      -7.25163224
C        8.23923029       6.17976402      -7.77337928
C        9.33637477       6.35491555      -8.62340137
C       10.13172993       5.26146528      -8.95807257
C        9.83837230       3.99708109      -8.45505496
C        8.74048569       3.82505350      -7.60569473
H       -0.27822066       0.52395824      -2.66875368
H        1.13718363       1.94937677      -4.09321167
H        3.64822865       2.83878162      -0.69260178
H        2.22573992       1.41282808       0.72391254
H        3.79726011       4.18684908      -2.75265896
H        2.72472759       3.88382684      -4.11796885
H        7.62679442       7.04417978      -7.51840563
H        9.55999533       7.34493484      -9.01329281
H       10.45495236       3.14026809      -8.71295960
H        8.53012134       2.82822960      -7.22196927
C       11.26514316       5.43989428      -9.82820907
C       12.21437675       5.58932856     -10.55694839
Br      13.74920717       5.83095117     -11.73525824
C       -0.88187489      -0.88187489      -0.88187489
C       -2.11093631      -1.32929013      -0.40273879
C       -2.91959485      -2.13131819      -1.21137521
C       -2.50630322      -2.48538863      -2.50512099
C       -1.25957099      -2.03632719      -2.96716886
C       -0.45098671      -1.23341146      -2.15914329
C       -3.38432134      -3.34644920      -3.38056932
S       -3.09048843      -5.11386919      -3.09469272
C       -4.23044712      -5.79027386      -4.21545225
N       -5.03583696      -5.09480291      -4.99167690
N       -5.76657782      -6.00751159      -5.72476464
C       -5.35598104      -7.20099870      -5.34664438
O       -4.38125560      -7.14058798      -4.38588116
C       -5.77054286      -8.52348582      -5.79796345
C       -6.76226175      -8.64442799      -6.78568386
C       -7.16818399      -9.90210143      -7.24440627
C       -6.58294892     -11.05098180      -6.71733705
C       -5.60097809     -10.95407686      -5.73545340
C       -5.19749824      -9.69518718      -5.27854849
H       -2.44859881      -1.06059989       0.59470744
H       -3.87646624      -2.47770768      -0.82559814
H       -0.91074429      -2.30704524      -3.96182252
H        0.50897154      -0.88889559      -2.53473141
H       -3.19541663      -3.10759880      -4.43375272
H       -4.43592806      -3.10878083      -3.18181438
H       -7.22716970      -7.75408606      -7.20812407
H       -7.93592103      -9.97109778      -8.01120417
H       -5.14114218     -11.84680255      -5.32023531
H       -4.42664479      -9.64201264      -4.51166278
C       -6.99471785     -12.34671121      -7.19181745
C       -7.33957432     -13.43188459      -7.58919479
Br      -7.89717808     -15.18651817      -8.23172033
C       -0.88187489       0.88187489       0.88187489
C       -1.03942245       0.57263394       2.23090883
C       -1.84163882       1.38229181       3.03835762
C       -2.48577906       2.50837522       2.50265856
C       -2.32622701       2.79804395       1.13879608
C       -1.52324906       1.98912946       0.33116294
C       -3.34686140       3.38650883       3.37796964
S       -5.05593908       2.78305836       3.46005292
C       -5.74227888       3.97574197       4.51815238
N       -5.08501245       4.98387982       5.05342450
N       -5.99287155       5.68888437       5.81709813
C       -7.14576545       5.06286299       5.69499569
O       -7.06138458       3.96093012       4.88541003
C       -8.44863852       5.37333481       6.27001880
C       -8.59411080       6.49523286       7.10302993
C       -9.83673517       6.82129096       7.65666555
C      -10.94595035       6.02555618       7.37976125
C      -10.82338512       4.90740845       6.55971478
C       -9.57953632       4.58374924       6.00794835
H       -0.54404209      -0.29272819       2.66317735
H       -1.96007846       1.12945328       4.09024032
H       -2.82478421       3.65833965       0.69648820
H       -1.40523968       2.23122137      -0.72180560
H       -3.33672099       4.41134804       2.98869912
H       -2.91782077       3.42251969       4.38618282
H       -7.73531521       7.12755445       7.32651017
H       -9.92583053       7.69569170       8.29670075
H      -11.68503586       4.28266047       6.34048372
H       -9.50626749       3.70625717       5.36779555
C      -12.22750971       6.36212592       7.94361088
C      -13.30081568       6.64400308       8.41583494
Br     -15.03626065       7.09977461       9.17938132
C        0.88187489      -0.88187489       0.88187489
C        0.29517592      -1.72526551       1.82252379
C        1.10156903      -2.53555198       2.62516724
C        2.49814720      -2.51106151       2.48760414
C        3.07313094      -1.64624485       1.54369125
C        2.26697358      -0.83645161       0.74011627
C        3.36808940      -3.39239201       3.35085845
S        3.77950573      -2.59284028       4.92670434
C        4.74505295      -3.84063409       5.65048619
N        5.01570741      -5.00633845       5.10027091
N        5.81020104      -5.69299124       5.99566177
C        5.97230194      -4.89774107       7.03358112
O        5.31987883      -3.70222581       6.88562010
C        6.72770052      -5.10080837       8.26348324
C        7.42090802      -6.30595245       8.46551313
C        8.16321132      -6.51966844       9.63181193
C        8.21803417      -5.52640683      10.60682678
C        7.53586212      -4.32616181      10.42848442
C        6.79419484      -4.11557901       9.26146006
H       -0.78479151      -1.76036382       1.93891895
H        0.63256602      -3.18832439       3.35888165
H        4.15400307      -1.59956347       1.42604551
H        2.72812077      -0.17696377       0.00957091
H        4.29010126      -3.63642853       2.81023836
H        2.84775197      -4.33857787       3.54019344
H        7.38831155      -7.09075484       7.71031345
H        8.69347334      -7.45943358       9.76531606
H        7.57457256      -3.54782265      11.18578484
H        6.26997967      -3.16905192       9.14128863
C        8.98609112      -5.74138138      11.80577401
C        9.62933882      -5.92142257      12.80989232
Br      10.66941594      -6.21253394      14.43346669
