121
Properties=species:S:1:pos:R:3 pbc="F F F"
C        0.00000000       0.00000000       0.00000000
C        0.88187489       0.88187489      -0.88187489
C        0.57838461       1.03146137      -2.23311924
C        1.38187278       1.84221892      -3.03819655
C        2.48939222       2.51205865      -2.49536197
C        2.78799385       2.34014011      -1.13493307
C        1.98412197       1.53018130      -0.32923819
C        3.35282694       3.39348976      -3.36502316
S        4.66691912       2.44796898      -4.18416226
C        5.43585053       3.72094081      -5.07938189
N        5.05781286       4.98266138      -5.08184253
N        5.93139165       5.65715050      -5.91031191
C        6.78632020       4.75985404      -6.35744989
O        6.53047196       3.50417462      -5.87307817
C        7.92712460       4.91323529      -7.25163224
C        8.23923029       6.17976402      -7.77337928
C        9.33637477       6.35491555      -8.62340137
C       10.13172993       5.26146528      -8.95807257
Br      11.61914147       5.49562290     -10.09997831
C        9.83837230       3.99708109      -8.45505496
C        8.74048569       3.82505350      -7.60569473
H       -0.27822066       0.52395824      -2.66875368
H        1.13718363       1.94937677      -4.09321167
H        3.64822865       2.83878162      -0.69260178
H        2.22573992       1.41282808       0.72391254
H        3.79726011       4.18684908      -2.75265896
H        2.72472759       3.88382684      -4.11796885
H        7.62679442       7.04417978      -7.51840563
H        9.55999533       7.34493484      -9.01329281
H       10.45495236       3.14026809      -8.71295960
H        8.53012134       2.82822960      -7.22196927
C       -0.88187489      -0.88187489      -0.88187489
C       -2.08993044      -1.36686835      -0.38616643
C       -2.89873288      -2.16890011      -1.19465525
C       -2.50673236      -2.48542452      -2.50465596
C       -1.28066999      -1.99876439      -2.98363266
C       -0.47197470      -1.19583375      -2.17573301
C       -3.38506255      -3.34654928      -3.37972804
S       -3.04651924      -5.11279624      -3.13973487
C       -4.19614524      -5.78984384      -4.25018414
N       -5.03356979      -5.09573598      -4.99301101
N       -5.76040021      -6.00830529      -5.73014856
C       -5.31559458      -7.20030714      -5.38772241
O       -4.32126910      -7.13914890      -4.44730675
C       -5.71120296      -8.52155343      -5.85923574
C       -6.72179557      -8.64300503      -6.82757299
C       -7.11034481      -9.89911553      -7.30523134
C       -6.48864111     -11.04588814      -6.81673853
Br      -7.00558756     -12.74395713      -7.46519800
C       -5.48739830     -10.94855202      -5.85455803
C       -5.10135721      -9.69124066      -5.37863604
H       -2.41107540      -1.12754663       0.62413077
H       -3.83900880      -2.54482432      -0.79593895
H       -0.94825993      -2.23992522      -3.99142690
H        0.47165420      -0.82193542      -2.56437423
H       -3.22489667      -3.08067437      -4.43119711
H       -4.43691021      -3.13673514      -3.15287791
H       -7.21527115      -7.75424525      -7.21986343
H       -7.89327730      -9.96847124      -8.05647444
H       -4.99910118     -11.83965005      -5.46942882
H       -4.31496334      -9.63763162      -4.62772526
C       -0.88187489       0.88187489       0.88187489
C       -1.03302306       0.57725170       2.23269046
C       -1.83524806       1.38692971       3.04011049
C       -2.48580144       2.50844020       2.50257120
C       -2.33263023       2.79344181       1.13699500
C       -1.52964725       1.98450939       0.32938482
C       -3.34689491       3.38662862       3.37781634
S       -5.05329544       2.77691653       3.46883838
C       -5.74016161       3.97103121       4.52498041
N       -5.08474285       4.98375909       5.05381483
N       -5.99237277       5.68820870       5.81827259
C       -7.14329759       5.05727989       5.70304665
O       -7.05777458       3.95255582       4.89739434
C       -8.44513605       5.36494989       6.28190619
C       -8.59173652       6.48949400       7.11114308
C       -9.83346993       6.81289954       7.66832221
C      -10.94065666       6.01182919       7.39878192
Br     -12.62131646       6.44989323       8.14353301
C      -10.81692744       4.89099720       6.58258370
C       -9.57397169       4.57000248       6.02725974
H       -0.53263498      -0.28451510       2.66637138
H       -1.94865263       1.13770895       4.09341049
H       -2.83621419       3.65009116       0.69330670
H       -1.41663554       2.22297784      -0.72495792
H       -3.34222115       4.40998524       2.98456177
H       -2.91411350       3.42819441       4.38421537
H       -7.73453920       7.12598153       7.32885910
H       -9.92348046       7.68942058       8.30532194
H      -11.67699279       4.26208862       6.36909863
H       -9.49977595       3.69032869       5.39021557
C        0.88187489      -0.88187489       0.88187489
C        0.29448925      -1.73750865       1.81096732
C        1.10094384      -2.54776459       2.61357981
C        2.49833597      -2.51097552       2.48750135
C        3.07386024      -1.63398460       1.55522219
C        2.26765283      -0.82421245       0.75167618
C        3.36842373      -3.39225127       3.35066486
S        3.76073042      -2.60218247       4.93613747
C        4.73049419      -3.84800539       5.65767365
N        5.01495423      -5.00702204       5.10034050
N        5.80776851      -5.69449671       5.99658883
C        5.95512041      -4.90638207       7.04212164
O        5.29426933      -3.71497627       6.89847914
C        6.70225642      -5.11331746       8.27641824
C        7.40353383      -6.31446140       8.47437837
C        8.13817100      -6.53163601       9.64488468
C        8.17715652      -5.54587419      10.62823706
Br       9.17470765      -5.83260564      12.20742940
C        7.48676364      -4.34973191      10.45401280
C        6.75279357      -4.13567932       9.28276102
H       -0.78605736      -1.78219728       1.91835134
H        0.63136493      -3.21017820       3.33822893
H        4.15522796      -1.57769631       1.44668778
H        2.72929680      -0.15517237       0.03018628
H        4.29667826      -3.62451866       2.81557124
H        2.85424496      -4.34407393       3.52820438
H        7.38332849      -7.09337475       7.71267658
H        8.67491914      -7.46817022       9.77513362
H        7.51311792      -3.57724934      11.21781279
H        6.22193045      -3.19244283       9.16594693
