133
Properties=species:S:1:pos:R:3 pbc="F F F"
C        0.00000000       0.00000000       0.00000000
C        0.88162707       0.88162707      -0.88162707
C        2.09198545       1.36211264      -0.38893574
C        2.89802791       2.16896879      -1.19532930
C        2.50083181       2.50117721      -2.50394406
C        1.27448084       2.00761622      -2.98078819
C        0.46853989       1.20138267      -2.17293495
C        3.36864380       3.37593325      -3.39911758
H        2.89197508       3.50116078      -4.38034004
C        4.73995215       2.75033494      -3.63193925
C        5.86376807       3.40557352      -3.28209331
N        5.82331366       4.66476425      -2.72073081
C        4.66855826       5.33907104      -2.54476227
N        4.40199109       6.55542255      -2.13361854
N        3.02938779       6.69369035      -2.23487125
N        2.46352206       5.58537817      -2.70373769
N        3.48432274       4.72750132      -2.85587541
C        7.17936095       2.79361932      -3.49260516
C        7.88118416       3.02094353      -4.68332705
C        9.13591204       2.44132892      -4.88224791
C        9.69541857       1.63283093      -3.89271584
C        8.99665401       1.40696313      -2.70764200
Br       9.75672873       0.31329717      -1.36587589
C        7.74275371       1.98139514      -2.50138984
H        2.41480144       1.11952078       0.62040822
H        3.83753797       2.54043194      -0.78868709
H        0.92887098       2.25348266      -3.98339057
H       -0.47939243       0.83358678      -2.55738369
H        4.77534316       1.76181349      -4.08080225
H        6.71135454       5.11943043      -2.52704571
H        7.45531625       3.65203558      -5.46087886
H        9.67768243       2.62113037      -5.80785239
H       10.67332568       1.18603206      -4.05390229
H        7.20535493       1.80259271      -1.57314835
C       -0.88162707      -0.88162707      -0.88162707
C       -2.25651020      -0.92104693      -0.66547669
C       -3.06270985      -1.72794889      -1.47166727
C       -2.50024634      -2.50205050      -2.50365625
C       -1.11017921      -2.44939859      -2.70330746
C       -0.30457483      -1.64263393      -1.89564875
C       -3.36403703      -3.38421824      -3.39543936
H       -2.73992597      -3.88857794      -4.14497200
C       -4.41051365      -2.56645875      -4.14525394
C       -5.72365900      -2.82894811      -3.99882778
N       -6.17234968      -3.84959424      -3.18686480
C       -5.32921112      -4.68146680      -2.54171366
N       -5.52176956      -5.75524176      -1.81402087
N       -4.26013212      -6.21538379      -1.48243348
N       -3.31021708      -5.44214573      -2.00027511
N       -3.98086613      -4.46181187      -2.62502146
C       -6.72705366      -2.02973851      -4.70879326
C       -7.18454372      -2.43023032      -5.97068069
C       -8.14308525      -1.67121585      -6.64518777
C       -8.64934063      -0.50945722      -6.06216749
C       -8.19387762      -0.11127698      -4.80610454
Br      -8.88240664       1.46188448      -4.01537963
C       -7.23622758      -0.86316688      -4.12614423
H       -2.70960949      -0.33306935       0.12876484
H       -4.13482244      -1.75017400      -1.28166055
H       -0.63826461      -3.04350221      -3.48397739
H        0.76944540      -1.61928515      -2.06173829
H       -4.05985874      -1.76675972      -4.79134044
H       -7.17359925      -4.02205229      -3.16217915
H       -6.79836928      -3.33616001      -6.43370140
H       -8.49607268      -1.98625246      -7.62434005
H       -9.39647607       0.07572542      -6.59250938
H       -6.88818253      -0.54733926      -3.14557420
C       -0.88162707       0.88162707       0.88162707
C       -0.66817610       0.91783762       2.25702011
C       -1.47505593       1.72392012       3.06334996
C       -2.50262328       2.50327859       2.50005121
C       -2.70254414       2.45030610       1.11003502
C       -1.89543653       1.64288623       0.30453474
C       -3.38938915       3.39141131       3.36289417
H       -4.11278338       3.92684688       2.73384564
C       -2.57154444       4.43743677       4.11324512
C       -2.59697336       4.49560820       5.45885333
N       -3.36975922       3.63215167       6.20689783
C       -4.18913448       2.72285363       5.64040347
N       -5.06846515       1.88604370       6.13652334
N       -5.64900200       1.26176424       5.04718315
N       -5.13979160       1.70958494       3.90326138
N       -4.19914613       2.59034026       4.27821309
C       -1.79647559       5.49218337       6.17692647
C       -2.34614875       6.73942438       6.49988161
C       -1.58509087       7.68714835       7.18724965
C       -0.27217000       7.39316612       7.55562923
C        0.27450345       6.15159505       7.23416754
Br       2.05304765       5.75284868       7.73610077
C       -0.47849985       5.19983924       6.54719960
H        0.11821949       0.32053202       2.71160147
H       -1.29640949       1.73263904       4.13760847
H       -3.49530068       3.03003999       0.64040354
H       -2.06890008       1.61077052      -0.76809256
H       -1.96772472       5.12374712       3.52648705
H       -3.37821780       3.76520465       7.21440824
H       -3.37016501       6.97838831       6.21967737
H       -2.01606729       8.65390942       7.43668847
H        0.31394968       8.13534095       8.09186876
H       -0.04573307       4.23273014       6.30263277
C        0.88162707      -0.88162707       0.88162707
C        0.29890687      -1.69063341       1.85349355
C        1.10554588      -2.49659390       2.66018622
C        2.50377045      -2.50181074       2.50037190
C        3.07162778      -1.67613707       1.51512041
C        2.26385372      -0.86961458       0.70938920
C        3.39875438      -3.37725860       3.36768165
H        4.44920845      -3.24985582       3.07441164
C        3.05516396      -4.85502277       3.21203961
C        2.68317361      -5.59106762       4.27719366
N        2.61525804      -5.04964074       5.54390994
C        2.97325362      -3.77548028       5.80365768
N        3.08297373      -3.09116823       6.91689023
N        3.56292359      -1.84754728       6.54747851
N        3.74921101      -1.77038300       5.23304392
N        3.34008689      -2.96058441       4.76702817
C        2.33786962      -7.00731892       4.12039689
C        3.32042975      -7.99423792       4.27078706
C        2.99080080      -9.34333347       4.12535460
C        1.67849497      -9.71265640       3.82981398
C        0.70079199      -8.73007981       3.68038734
Br      -1.07809364      -9.23148934       3.28250609
C        1.02179846      -7.38051330       3.82322692
H       -0.77897333      -1.69813443       1.99475290
H        0.63077639      -3.11665760       3.41922301
H        4.15017957      -1.64485955       1.37070508
H        2.72185666      -0.23341500      -0.04369362
H        3.11498098      -5.28615354       2.21682438
H        2.37472715      -5.67525005       6.30785349
H        4.34674834      -7.71756501       4.50391734
H        3.75659019     -10.10630983       4.24376517
H        1.42885461     -10.76498933       3.71941609
H        0.25287535      -6.62034848       3.70787215
