154
Properties=species:S:1:pos:R:3 pbc="F F F"
C        1.79153109       1.79153109      -1.79153109
C        3.00188948       2.27201666      -1.29883976
C        3.80793194       3.07887282      -2.10523333
C        3.41073584       3.41108123      -3.41384809
C        2.18438487       2.91752025      -3.89069221
C        1.37844391       2.11128670      -3.08283897
C        4.27854782       4.28583728      -4.30902160
H        3.80187911       4.41106481      -5.29024407
C        5.64985617       3.66023896      -4.54184328
C        6.77367209       4.31547754      -4.19199733
N        6.73321768       5.57466828      -3.63063483
C        5.57846229       6.24897507      -3.45466630
N        5.31189512       7.46532658      -3.04352257
N        3.93929181       7.60359437      -3.14477527
N        3.37342609       6.49528220      -3.61364171
N        4.39422677       5.63740535      -3.76577943
C        8.08926497       3.70352335      -4.40250918
C        8.79108819       3.93084755      -5.59323107
C       10.04581606       3.35123295      -5.79215193
C       10.60532260       2.54273496      -4.80261986
C        9.90655804       2.31686716      -3.61754602
Br      10.66663276       1.22320119      -2.27577991
C        8.65265773       2.89129916      -3.41129386
H        3.32470547       2.02942481      -0.28949580
H        4.74744199       3.45033597      -1.69859111
H        1.83877500       3.16338668      -4.89329460
H        0.43051159       1.74349081      -3.46728772
H        5.68524719       2.67171751      -4.99070628
H        7.62125857       6.02933446      -3.43694974
H        8.36522028       4.56193961      -6.37078288
H       10.58758646       3.53103439      -6.71775641
H       11.58322970       2.09593609      -4.96380631
H        8.11525895       2.71249673      -2.48305237
C       -1.79153109      -1.79153109      -1.79153109
C       -1.20709674      -2.74688263      -2.61876653
C       -2.01366101      -3.55285520      -3.42552187
C       -3.41378952      -3.41138437      -3.41049127
C       -3.98303790      -2.43953485      -2.57002458
C       -3.17520225      -1.63321025      -1.76415708
C       -4.30934248      -4.28417640      -4.27988782
H       -5.36385797      -4.03003596      -4.10929405
C       -4.13546808      -5.76365504      -3.95281529
C       -3.74353950      -6.63671520      -4.90089226
N       -3.50266356      -6.23705325      -6.19880398
C       -3.70203765      -4.96856997      -6.61149603
N       -3.63668627      -4.39508488      -7.78897311
N       -4.01856556      -3.08081704      -7.58827886
N       -4.31752739      -2.85193863      -6.31288398
N       -4.07809748      -4.02083326      -5.69848080
C       -3.56175267      -8.05531642      -4.57822841
C       -4.62225675      -8.95665376      -4.73625629
C       -4.44803214     -10.30845675      -4.43271205
C       -3.21389614     -10.76603956      -3.97074172
C       -2.15855889      -9.86864937      -3.81376295
Br      -0.48546077     -10.48997266      -3.19018044
C       -2.32443742      -8.51691642      -4.11389691
H       -0.12725140      -2.86920902      -2.64716565
H       -1.53653212      -4.28916051      -4.07067644
H       -5.06139822      -2.29327484      -2.54078321
H       -3.63351357      -0.88309843      -1.12467812
H       -4.33170276      -6.08274900      -2.93321921
H       -3.25762226      -6.95754145      -6.87237906
H       -5.58850537      -8.61104280      -5.09839461
H       -5.27381958     -11.00491563      -4.55764205
H       -3.08511985     -11.82010069      -3.73775156
H       -1.49555098      -7.82384784      -3.99140924
C       -1.79153109       1.79153109       1.79153109
C       -1.39360940       3.09281285       2.08632366
C       -2.19991558       3.89891224       2.89321026
C       -3.41377600       3.41045690       3.41143225
C       -3.79555039       2.09350053       3.10354641
C       -2.98774966       1.28772179       2.29709812
C       -4.30791609       4.27626246       4.28922815
H       -5.21035460       3.71914513       4.57368825
C       -4.75844081       5.53618201       3.55731560
C       -4.47392829       6.75727095       4.04994771
N       -3.78578110       6.91838425       5.23435544
C       -3.41116388       5.87220230       5.99873747
N       -2.85004446       5.78962001       7.18107979
N       -2.77934845       4.43864641       7.46966660
N       -3.29147975       3.70504962       6.48582062
N       -3.64604058       4.60035166       5.55101931
C       -4.89465409       7.96597179       3.33467162
C       -6.12813706       8.56364816       3.62338158
C       -6.52715633       9.71707827       2.94496634
C       -5.69584752      10.27894594       1.97588396
C       -4.46814590       9.68388055       1.68894476
Br      -3.34081615      10.44743979       0.37735792
C       -4.06250645       8.53142682       2.36131748
H       -0.45783220       3.48738001       1.69841386
H       -1.86727533       4.91130359       3.11779016
H       -4.72172997       1.67747189       3.49625443
H       -3.29712249       0.26969617       2.07447146
H       -5.30715349       5.41245490       2.62806258
H       -3.64919986       7.86762477       5.57071813
H       -6.78336320       8.13528215       4.37929742
H       -7.48525237      10.17828789       3.17283700
H       -6.01240828      11.17783818       1.45272564
H       -3.10220115       8.07492090       2.13368601
C        1.79153109      -1.79153109       1.79153109
C        2.10065764      -1.38521053       3.08687773
C        2.90754246      -2.19152336       3.89297226
C        3.41140432      -3.41378402       3.41047681
C        3.08918828      -3.80397916       2.09942989
C        2.28275702      -2.99617291       1.29363965
C        4.28896154      -4.30802359       4.27642157
H        4.56111089      -5.21748207       3.72459503
C        3.56398427      -4.74174561       5.54620853
C        4.06930559      -4.45117393       6.76066744
N        5.26076898      -3.77174893       6.90600288
C        6.01938550      -3.41240983       5.85030832
N        7.20565460      -2.86203159       5.75305807
N        7.48337875      -2.80512295       4.39915976
N        6.48909439      -3.31504746       3.67820815
N        5.55896189      -3.65415548       4.58429418
C        3.36078017      -4.85566987       7.97884746
C        3.64417537      -6.08649237       8.58449907
C        2.97222252      -6.47005927       9.74691915
C        2.01494271      -5.62589045      10.30984425
C        1.73329173      -4.40084197       9.70683751
Br       0.43772375      -3.25608114      10.47180898
C        2.39926632      -4.01059602       8.54538841
H        1.72396985      -0.44290445       3.47675178
H        3.14346801      -1.85231011       4.90059095
H        3.47057285      -4.73690906       1.68797437
H        2.04893215      -3.31218421       0.28017375
H        2.62914428      -5.28359200       5.43493469
H        5.60628919      -3.63005703       7.85119654
H        4.39091179      -6.75166607       8.15536490
H        3.19593908      -7.42614486      10.21429332
H        1.49677331      -5.93045540      11.21574339
H        2.17584728      -3.05226386       8.08269692
C       -0.00445707       0.01189536      -1.78238275
H       -0.66409135       0.67374010      -2.43557963
H        0.65740317      -0.63156657      -2.45157240
C       -0.90989263      -0.90692880      -0.91072765
C        0.90977584       0.90977584      -0.90977584
C       -0.00465871       1.77757030       0.00794375
H       -0.66225468       2.44313916      -0.64384735
H        0.64322798       2.43503045       0.67728295
C       -1.78241447       0.00034974      -0.00472694
H       -2.45427497      -0.65498947       0.64260836
H       -2.43311707       0.67328779      -0.65473579
C       -0.91132561       0.90220522       0.91563759
C       -0.01476271      -0.02253852       1.78660255
H       -0.67934791      -0.69751639       2.42135241
H        0.63392994       0.61504881       2.47327442
C        0.01484550      -1.77751727      -0.01636693
H        0.67870853      -2.42144646      -0.68295456
H       -0.62264859      -2.45592969       0.64226336
C        1.78714474       0.01002794       0.00389507
H        2.44202412       0.67113390       0.66197326
H        2.45385902      -0.65136977      -0.64189061
C        0.91606151      -0.90478549       0.90901405
