162
Properties=species:S:1:pos:R:3 pbc="F F F"
C        1.79168093       1.79168093      -1.79168093
C        3.03091072       2.22154116      -1.31944252
C        3.83710954       3.02857425      -2.12581980
C        3.40456308       3.40450544      -3.40388148
C        2.15770896       2.96672495      -3.86814398
C        1.35054477       2.16055865      -3.06166799
C        4.25227798       4.25103993      -4.24912580
C        5.10988441       3.69834723      -5.12877000
C        5.98435665       4.57431438      -6.01917525
H        7.03196328       4.34760996      -5.78110960
C        5.71285698       4.31288746      -7.49410604
C        6.74611073       3.85836207      -8.33044725
C        6.50980382       3.61117284      -9.68474738
C        5.23962316       3.81284801     -10.22256450
C        4.20849335       4.26429042      -9.40304799
C        4.43564781       4.51529528      -8.04996691
N        5.81788430       5.99076967      -5.70141966
N        6.57675942       6.98316230      -6.19151686
N        6.10451414       8.08039322      -5.60719831
N        5.08461689       7.78108352      -4.72160537
C        4.93642215       6.47960174      -4.77527860
N        4.14513884       5.61844971      -4.10316800
H        3.37695478       1.93590393      -0.32941299
H        4.80257811       3.36230394      -1.75133886
H        1.80688848       3.25306413      -4.85750135
H        0.38397382       1.82819841      -3.43159842
H        5.19939235       2.62100596      -5.23343995
H        7.74937797       3.70089943      -7.93789332
H        7.31941926       3.26586395     -10.32352535
H        5.06632497       3.62083481     -11.27824915
H        3.61737859       4.87385294      -7.42800675
H        3.51011716       5.96416106      -3.38899604
C        2.89510634       4.47258470      -9.95552248
C        1.79514472       4.64703116     -10.41821987
Br       0.01659982       4.92909633     -11.16636241
C       -1.79168093      -1.79168093      -1.79168093
C       -1.38271472      -2.10118301      -3.08799668
C       -2.18961055      -2.90722969      -3.89466335
C       -3.40409205      -3.40410489      -3.40475307
C       -3.80500454      -3.08683056      -2.10074279
C       -2.99897402      -2.27981688      -1.29398051
C       -4.24941927      -4.25048168      -4.25254276
C       -4.13329548      -5.59196679      -4.21173936
C       -5.01888182      -6.47710062      -5.08186384
H       -4.36172342      -7.04760618      -5.75135324
C       -5.85790873      -7.42530789      -4.23663385
C       -5.72482926      -8.81484174      -4.39524905
C       -6.48591760      -9.69607663      -3.62372980
C       -7.38887417      -9.20317328      -2.68298821
C       -7.52971970      -7.82778807      -2.51832398
C       -6.77511383      -6.94035658      -3.28543958
N       -5.86537110      -5.67889664      -5.96580589
N       -6.61795635      -6.17197713      -6.96150510
N       -7.17402705      -5.09992760      -7.51815101
N       -6.74362804      -3.93473525      -6.90894249
C       -5.91531741      -4.31098791      -5.96499717
N       -5.15040256      -3.62637073      -5.08998325
H       -0.44219169      -1.72137312      -3.47870688
H       -1.86602272      -3.14414908      -4.90604910
H       -4.74718100      -3.46291861      -1.70735435
H       -3.32101186      -2.03855928      -0.28419952
H       -3.41522061      -6.07967383      -3.55894383
H       -5.03327718      -9.22614177      -5.12875176
H       -6.37877866     -10.76967183      -3.76035807
H       -7.97899562      -9.89676748      -2.08964583
H       -6.90503179      -5.86867060      -3.14553590
H       -5.15219298      -2.61015836      -5.10092292
C       -8.46092435      -7.31565121      -1.54663796
C       -9.24080825      -6.88673659      -0.73285091
Br     -10.50181455      -6.19321792       0.58297391
C       -1.79168093       1.79168093       1.79168093
C       -3.17593702       1.62814222       1.76781517
C       -3.98242702       2.43513928       2.57393730
C       -3.40472896       3.40423456       3.40398648
C       -2.01282537       3.55974804       3.42000448
C       -1.20587752       2.75373256       2.61316133
C       -4.25264829       4.24991403       4.24988140
C       -4.52807751       3.89034903       5.51857509
C       -5.39873253       4.77262903       6.40648472
H       -6.28312472       4.18714881       6.69040931
C       -4.64600850       5.22323655       7.65060542
C       -5.12628446       4.88252176       8.92611383
C       -4.44349768       5.28645497      10.07577139
C       -3.27206495       6.03446467       9.96850605
C       -2.78770071       6.37878098       8.70935006
C       -3.46374973       5.98120668       7.55595360
N       -5.92086721       5.92062675       5.66857967
N       -6.84981949       6.77274633       6.12887276
N       -7.04979026       7.61929164       5.12302376
N       -6.28690164       7.28076146       4.01964268
C       -5.61153384       6.21230604       4.36746260
N       -4.75859337       5.40895341       3.69920977
H       -3.63526280       0.87924160       1.12776729
H       -5.06223091       2.30402994       2.54996005
H       -1.54982027       4.31031179       4.05732189
H       -0.12693913       2.88448021       2.63235132
H       -4.13675896       2.97154260       5.94553670
H       -6.04334151       4.30646279       9.03836641
H       -4.82884734       5.02215040      11.05781082
H       -2.74958407       6.34688699      10.86893786
H       -3.07161400       6.26630462       6.58131967
H       -4.54615945       5.59429218       2.72282263
C       -1.57733289       7.15053978       8.59534085
C       -0.56364984       7.79688777       8.49985813
Br       1.07538991       8.84197781       8.34547066
C        1.79168093      -1.79168093       1.79168093
C        1.57767878      -1.82538305       3.16883258
C        2.38466143      -2.63148744       3.97535472
C        3.40420752      -3.40400527       3.40473722
C        3.61017747      -3.36246923       2.01993118
C        2.80416465      -2.55559240       1.21301436
C        4.24981446      -4.24998347       4.25264578
C        3.92816636      -5.54018337       4.46865190
C        4.81107458      -6.42765165       5.33912004
H        4.20516363      -6.76525567       6.19026354
C        5.33457658      -7.62580379       4.55947010
C        5.02463915      -8.92977501       4.98050589
C        5.49548900     -10.03787957       4.27235546
C        6.28062805      -9.86014020       3.13426741
C        6.59491940      -8.57221732       2.70869503
C        6.13052275      -7.45989873       3.41048851
N        5.91121302      -5.66892741       5.92993320
N        6.74594796      -6.13261412       6.87287650
N        7.54662936      -5.10512805       7.14034827
N        7.19482342      -3.98694012       6.40554225
C        6.16507634      -4.34752447       5.67870167
N        5.36854864      -3.67723970       4.82096820
H        0.78937919      -1.23027356       3.62261893
H        2.21399227      -2.65255115       5.04967748
H        4.40016842      -3.95465481       1.56263073
H        2.97426283      -2.52979317       0.13971465
H        3.04060283      -5.98501930       4.02821613
H        4.42055590      -9.09681775       5.87079706
H        5.25432295     -11.04248555       4.61200006
H        6.64502388     -10.72862748       2.59175756
H        6.39297467      -6.46168712       3.06457649
H        5.52484604      -2.68757119       4.65085703
C        7.40492450      -8.38543602       1.53285300
C        8.08330377      -8.22900669       0.54808529
Br       9.18018567      -7.97607367      -1.04420079
C       -0.00445707       0.01189536      -1.78238275
H       -0.66409135       0.67374010      -2.43557963
H        0.65740317      -0.63156657      -2.45157240
C       -0.90989263      -0.90692880      -0.91072765
C        0.90977584       0.90977584      -0.90977584
C       -0.00465871       1.77757030       0.00794375
H       -0.66225468       2.44313916      -0.64384735
H        0.64322798       2.43503045       0.67728295
C       -1.78241447       0.00034974      -0.00472694
H       -2.45427497      -0.65498947       0.64260836
H       -2.43311707       0.67328779      -0.65473579
C       -0.91132561       0.90220522       0.91563759
C       -0.01476271      -0.02253852       1.78660255
H       -0.67934791      -0.69751639       2.42135241
H        0.63392994       0.61504881       2.47327442
C        0.01484550      -1.77751727      -0.01636693
H        0.67870853      -2.42144646      -0.68295456
H       -0.62264859      -2.45592969       0.64226336
C        1.78714474       0.01002794       0.00389507
H        2.44202412       0.67113390       0.66197326
H        2.45385902      -0.65136977      -0.64189061
C        0.91606151      -0.90478549       0.90901405
