133
Properties=species:S:1:pos:R:3 pbc="F F F"
C        0.00000000       0.00000000       0.00000000
C        0.88177691       0.88177691      -0.88177691
C        2.12100670       1.31163714      -0.40953850
C        2.92720552       2.11867023      -1.21591577
C        2.49465906       2.49460142      -2.49397745
C        1.24780494       2.05682092      -2.95823995
C        0.44064074       1.25065462      -2.15176397
C        3.34237395       3.34113591      -3.33922177
C        4.19998038       2.78844320      -4.21886597
C        5.07445263       3.66441035      -5.10927123
H        6.12205926       3.43770594      -4.87120557
C        4.80295295       3.40298343      -6.58420201
C        5.83620670       2.94845805      -7.42054322
C        5.59989979       2.70126882      -8.77484336
C        4.32971913       2.90294399      -9.31266047
C        3.29858932       3.35438639      -8.49314397
Br       1.57425435       3.62785424      -9.21848317
C        3.52574379       3.60539125      -7.14006289
N        4.90798028       5.08086564      -4.79151564
N        5.66685540       6.07325828      -5.28161283
N        5.19461011       7.17048920      -4.69729428
N        4.17471286       6.87117950      -3.81170135
C        4.02651813       5.56969771      -3.86537457
N        3.23523482       4.70854568      -3.19326397
H        2.46705075       1.02599990       0.58049104
H        3.89267408       2.45239991      -0.84143483
H        0.89698445       2.34316011      -3.94759733
H       -0.52593020       0.91829439      -2.52169440
H        4.28948833       1.71110193      -4.32353593
H        6.83947394       2.79099540      -7.02798930
H        6.40951524       2.35595992      -9.41362133
H        4.15642094       2.71093078     -10.36834513
H        2.70747457       3.96394892      -6.51810273
H        2.60021313       5.05425704      -2.47909202
C       -0.88177691      -0.88177691      -0.88177691
C       -0.32758531      -1.53005975      -1.98453728
C       -1.13433864      -2.33609057      -2.79136231
C       -2.49407454      -2.49434266      -2.49482073
C       -3.04020985      -1.83835379      -1.38430217
C       -2.23409638      -1.03122132      -0.57774164
C       -3.33919466      -3.34120818      -3.34232880
C       -3.52360442      -4.64146249      -3.04222264
C       -4.41181247      -5.52328569      -3.91303606
H       -3.78562960      -6.33099584      -4.31434533
C       -5.57053518      -6.10462024      -3.11498297
C       -5.71393129      -7.49694033      -2.99433636
C       -6.77040715      -8.04351586      -2.26208895
C       -7.69710887      -7.20873120      -1.63948353
C       -7.56528231      -5.82733425      -1.75350313
Br      -8.81927512      -4.69182825      -0.90948839
C       -6.51447393      -5.27271835      -2.48400565
N       -4.89766232      -4.79796225      -5.08473699
N       -5.55163011      -5.35360505      -6.11649135
N       -5.75711433      -4.34584429      -6.95943497
N       -5.19998175      -3.17111816      -6.48649379
C       -4.65131283      -3.47500578      -5.33527180
N       -3.92304562      -2.76352302      -4.45047583
H        0.72634304      -1.41472639      -2.22417627
H       -0.69664338      -2.83829979      -3.65156565
H       -4.09539625      -1.94924467      -1.14310096
H       -2.66908662      -0.52546291       0.28049094
H       -3.05361814      -5.09570181      -2.17480623
H       -5.00918070      -8.17154791      -3.47773003
H       -6.87457599      -9.12305356      -2.18146694
H       -8.51762823      -7.64348332      -1.07458531
H       -6.43317338      -4.19030363      -2.56604921
H       -3.70408167      -1.78940014      -4.64008037
C       -0.88177691       0.88177691       0.88177691
C       -2.13190868       1.29058519       0.41968846
C       -2.93811565       2.09762036       1.22605551
C       -2.49466668       2.49459299       2.49397826
C       -1.23691120       2.07786014       2.94809447
C       -0.42975094       1.27170221       2.14160619
C       -3.34239716       3.34109710       3.33923738
C       -4.18228600       2.78889031       4.23611325
C       -5.05658202       3.66505436       5.12649783
H       -6.10413480       3.42263626       4.90419971
C       -4.76386417       3.42523281       6.60104142
C       -5.78111750       2.96849619       7.45559428
C       -5.52523744       2.74098765       8.80978688
C       -4.25117143       2.96480886       9.32934331
C       -3.23579796       3.41864515       8.49167656
Br      -1.50624286       3.72211834       9.19223056
C       -3.48255927       3.65009568       7.13854298
N       -4.91154251       5.07939859       4.78942045
N       -5.67659141       6.06843059       5.27670452
N       -5.22513336       7.16403760       4.67322264
N       -4.21250993       6.86628055       3.77880323
C       -4.04757970       5.56747068       3.84654003
N       -3.25397558       4.70780362       3.17526526
H       -2.48646546       0.98851353      -0.56241938
H       -3.91214359       2.41486768       0.85949756
H       -0.87759561       2.38068370       3.92946257
H        0.54530666       0.95578131       2.50358394
H       -4.25717236       1.71191307       4.35504076
H       -6.78708222       2.79393993       7.07743649
H       -6.32265190       2.39373980       9.46270480
H       -4.06262252       2.78800350      10.38507083
H       -2.67645073       4.01090413       6.50217135
H       -2.63205484       5.05238742       2.44911992
C        0.88177691      -0.88177691       0.88177691
C        0.50197038      -1.14270624       2.19750571
C        1.30888347      -1.94876006       3.00414799
C        2.49420680      -2.49418225       2.49484888
C        2.86596209      -2.22547033       1.17143339
C        2.05993805      -1.41847804       0.36464324
C        3.33957579      -3.34048890       3.34266695
C        3.18461565      -4.67866583       3.34400808
C        4.06976702      -5.56423513       4.21413206
H        3.41647589      -6.09640752       4.91808736
C        4.85695291      -6.55974856       3.37343693
C        4.68947310      -7.93983243       3.57590245
C        5.40280292      -8.86409711       2.80911193
C        6.29165377      -8.42421395       1.82945587
C        6.46632000      -7.05866228       1.62113740
Br       7.66987559      -6.45812949       0.29258667
C        5.75951423      -6.12851768       2.38316602
N        4.96362264      -4.76631844       5.05042048
N        5.73054990      -5.25276928       6.03840733
N        6.33245277      -4.18203127       6.54790956
N        5.91755339      -3.02246985       5.91757047
C        5.05199792      -3.40099419       5.00859830
N        4.28163550      -2.71940973       4.13599924
H       -0.41578453      -0.72497803       2.60336612
H        1.00817786      -2.14765604       4.03067492
H        3.78539626      -2.63960298       0.76274265
H        2.35926347      -1.21515735      -0.66036224
H        2.43450013      -5.16355261       2.72607345
H        4.00814994      -8.31013189       4.34017681
H        5.26949640      -9.92986981       2.97973028
H        6.84459557      -9.15102659       1.24007469
H        5.91543262      -5.06540440       2.20868920
H        4.31233757      -1.70377006       4.11745456
