186
Properties=species:S:1:pos:R:3 pbc="F F F"
C        1.79178994       1.79178994      -1.79178994
C        1.42799411       2.02748290      -3.11657703
C        2.23600873       2.83249795      -3.92309537
C        3.40542642       3.40403977      -3.40458835
C        3.76012941       3.16088618      -2.07188578
C        2.95407703       2.35355067      -1.26525584
C        4.24822429       4.25041285      -4.25530239
C        4.14932756       5.59044041      -4.20148174
C        5.01891477       6.46300808      -5.08591584
H        4.35699763       7.06005574      -5.72842836
C        5.88069311       7.39440930      -4.23957477
C        7.10637120       6.97872661      -3.68827791
C        7.87077628       7.84772824      -2.90717378
C        7.41338508       9.13766522      -2.64487350
C        6.18978683       9.55228634      -3.16411092
Br       5.55628619      11.29395237      -2.79186212
C        5.42424964       8.69344931      -3.95432916
N        5.82667116       5.67587317      -6.02964537
C        5.87991274       4.30104924      -6.00661749
N        5.12206530       3.63312393      -5.11762867
N        6.70207187       3.83456416      -6.91182847
C        7.16705041       4.94490051      -7.57786992
C        8.07108166       5.02436320      -8.64811001
C        8.38401692       6.28295870      -9.17516503
C        7.80838917       7.44114961      -8.64938239
C        6.90930863       7.38529235      -7.57775181
C        6.61433988       6.11733990      -7.06332323
H        0.52268015       1.59109287      -3.53027424
H        1.94953373       3.01319634      -4.95714916
H        4.66835662       3.59442389      -1.65832919
H        3.24185035       2.16922291      -0.23356902
H        3.44879618       6.07843718      -3.53128688
H        7.48481780       5.97325631      -3.87007210
H        8.82462011       7.51560994      -2.50329302
H        8.01436581       9.80593253      -2.03367579
H        4.46875382       9.03454827      -4.34712779
H        5.14195480       2.61728601      -5.11765775
H        8.51285064       4.12056871      -9.05267829
H        9.08415381       6.35605467     -10.00426378
H        8.06750332       8.40788710      -9.07701550
H        6.47527653       8.29050226      -7.16726518
C       -1.79178994      -1.79178994      -1.79178994
C       -2.92547699      -2.39588295      -1.25069410
C       -3.73045826      -3.20386115      -2.05728264
C       -3.40393028      -3.40530840      -3.40481587
C       -2.26303390      -2.79239343      -3.93747404
C       -1.45572403      -1.98636869      -3.13079082
C       -4.25427713      -4.25238934      -4.24727307
C       -5.17904360      -3.70590997      -5.05629615
C       -6.06021394      -4.58476944      -5.92285530
H       -7.10529264      -4.40575551      -5.63443359
C       -5.87454656      -4.24253292      -7.39759770
C       -4.82578467      -4.78585654      -8.16173451
C       -4.67121906      -4.44702574      -9.50743350
C       -5.54691425      -3.54315053     -10.10585901
C       -6.57368755      -2.97935090      -9.35314565
Br      -7.74974342      -1.73621623     -10.15614103
C       -6.74150251      -3.32037443      -8.01015116
N       -5.85260847      -6.01716252      -5.66241872
C       -4.86968645      -6.49280943      -4.82508359
N       -4.08989038      -5.61438384      -4.16854368
N       -4.85425390      -7.80112844      -4.79308217
C       -5.89433925      -8.19038804      -5.60509355
C       -6.33493820      -9.48366435      -5.92495232
C       -7.43895879      -9.62999347      -6.77318839
C       -8.09391833      -8.51196568      -7.29303717
C       -7.66709918      -7.21304970      -6.99220391
C       -6.55873086      -7.09008620      -6.14618595
H       -3.19034330      -2.24640711      -0.20729685
H       -4.61392674      -3.67485585      -1.63109664
H       -1.99531667      -2.94478401      -4.98100902
H       -0.57083270      -1.51905057      -3.55475900
H       -5.31961864      -2.63091553      -5.10798606
H       -4.12137546      -5.48879711      -7.71797364
H       -3.86522032      -4.89010500     -10.08819775
H       -5.41692758      -3.28374575     -11.15330080
H       -7.54715134      -2.86558639      -7.43769214
H       -3.38102637      -5.96514036      -3.53073183
H       -5.82263706     -10.34739827      -5.51606231
H       -7.78832747     -10.62790655      -7.02823824
H       -8.95031097      -8.65214637      -7.94994858
H       -8.17400871      -6.34971578      -7.40931948
C       -1.79178994       1.79178994       1.79178994
C       -3.07230299       2.13700090       1.36275016
C       -3.87754614       2.94517030       2.16888560
C       -3.40403036       3.40542003       3.40460415
C       -2.11621754       3.05122540       3.82545843
C       -1.30902866       2.24527252       3.01858236
C       -4.25494409       4.25129915       4.24769629
C       -4.95766020       3.71992784       5.26366168
C       -5.84048527       4.59647564       6.13087777
H       -6.87259887       4.22979086       6.04309200
C       -5.39893207       4.52657779       7.58916732
C       -4.35613128       5.32669842       8.09054602
C       -3.96343313       5.23492385       9.42732132
C       -4.58960329       4.32710564      10.27921486
C       -5.60602110       3.51188195       9.78828105
Br      -6.44232982       2.26401288      10.93575799
C       -6.01164322       3.60439689       8.45598800
N       -5.90564906       5.98259529       5.64394535
C       -5.13858193       6.44825591       4.60074163
N       -4.32570876       5.59204797       3.95506117
N       -5.33969912       7.72344474       4.38532065
C       -6.30611601       8.09076066       5.29294417
C       -6.90148536       9.34488216       5.49718735
C       -7.88601884       9.47184106       6.48428074
C       -8.27278029       8.37272728       7.25341361
C       -7.68731935       7.11426180       7.07077164
C       -6.70201189       7.01109374       6.08189738
H       -3.45175822       1.78531318       0.40697587
H       -4.87609906       3.21368502       1.83009514
H       -1.73442960       3.40617896       4.78050114
H       -0.30998861       1.98018842       3.35446524
H       -4.91383689       2.65850748       5.48617587
H       -3.84331104       6.03945352       7.44538166
H       -3.16704796       5.87371979       9.80275532
H       -4.27518634       4.26124448      11.31754330
H       -6.80463831       2.95555427       8.09023731
H       -3.77847886       5.92993123       3.16848847
H       -6.59753703      10.19370206       4.89485856
H       -8.35345044      10.43957103       6.65145079
H       -9.04095167       8.49709601       8.01435825
H       -7.98492272       6.26791263       7.68020862
C        1.79178994      -1.79178994       1.79178994
C        1.21132867      -2.56438622       2.79633915
C        2.01866319      -3.36917127       3.60376759
C        3.40514916      -3.40388174       3.40502364
C        3.97679551      -2.62407828       2.39202757
C        3.17043634      -1.81666646       1.58578073
C        4.24720149      -4.25269571       4.25404233
C        4.64525074      -5.46538530       3.83061368
C        5.51212365      -6.34290174       4.71281329
H        4.96401642      -7.27546877       4.90599655
C        6.83192738      -6.66387844       4.01887136
C        7.92859800      -5.78379476       4.06098296
C        9.12212342      -6.09634129       3.40721360
C        9.23257428      -7.28123614       2.68211337
C        8.14553630      -8.14850933       2.61213846
Br       8.28491023      -9.74599891       1.61119153
C        6.95227007      -7.84862274       3.27113530
N        5.72188926      -5.76259955       6.04770090
C        5.28993653      -4.50301156       6.39463138
N        4.59713581      -3.77980000       5.49588209
N        5.63573303      -4.19417076       7.61856071
C        6.27770306      -5.31129049       8.10082729
C        6.84823275      -5.53157270       9.36374941
C        7.44094571      -6.77166565       9.62952929
C        7.46524243      -7.77484295       8.65883579
C        6.90786337      -7.57406844       7.39042098
C        6.32481833      -6.32545226       7.14473242
H        0.13699668      -2.54732621       2.95972437
H        1.56216659      -3.96991015       4.38780248
H        5.05270727      -2.63788043       2.23052201
H        3.62621910      -1.21316639       0.80525678
H        4.35693840      -5.84576670       2.85581513
H        7.86799495      -4.84663255       4.61351871
H        9.96614229      -5.41256203       3.46481875
H       10.16491235      -7.51453156       2.17453022
H        6.11274866      -8.53699229       3.20068893
H        4.25613376      -2.86006543       5.76069937
H        6.82404256      -4.74860334      10.11345175
H        7.88682042      -6.95275503      10.60489681
H        7.93160487      -8.73066643       8.89013463
H        6.94102197      -8.35425811       6.63776389
C       -0.00445707       0.01189536      -1.78238275
H       -0.66409135       0.67374010      -2.43557963
H        0.65740317      -0.63156657      -2.45157240
C       -0.90989263      -0.90692880      -0.91072765
C        0.90977584       0.90977584      -0.90977584
C       -0.00465871       1.77757030       0.00794375
H       -0.66225468       2.44313916      -0.64384735
H        0.64322798       2.43503045       0.67728295
C       -1.78241447       0.00034974      -0.00472694
H       -2.45427497      -0.65498947       0.64260836
H       -2.43311707       0.67328779      -0.65473579
C       -0.91132561       0.90220522       0.91563759
C       -0.01476271      -0.02253852       1.78660255
H       -0.67934791      -0.69751639       2.42135241
H        0.63392994       0.61504881       2.47327442
C        0.01484550      -1.77751727      -0.01636693
H        0.67870853      -2.42144646      -0.68295456
H       -0.62264859      -2.45592969       0.64226336
C        1.78714474       0.01002794       0.00389507
H        2.44202412       0.67113390       0.66197326
H        2.45385902      -0.65136977      -0.64189061
C        0.91606151      -0.90478549       0.90901405
