173
Properties=species:S:1:pos:R:3 pbc="F F F"
C        0.00000000       0.00000000       0.00000000
C        0.88188591       0.88188591      -0.88188591
C        0.51809009       1.11757887      -2.20667301
C        1.32610471       1.92259392      -3.01319135
C        2.49552239       2.49413575      -2.49468433
C        2.85022538       2.25098216      -1.16198176
C        2.04417300       1.44364664      -0.35535182
C        3.33832027       3.34050883      -3.34539836
C        3.23942354       4.68053639      -3.29157772
C        4.10901075       5.55310405      -4.17601181
H        3.44709361       6.15015172      -4.81852433
C        4.97078908       6.48450528      -3.32967075
C        6.19646718       6.06882259      -2.77837388
C        6.96087226       6.93782422      -1.99726975
C        6.50348105       8.22776120      -1.73496948
C        5.27988281       8.64238232      -2.25420690
C        4.51434561       7.78354529      -3.04442514
N        4.91676713       4.76596915      -5.11974135
C        4.97000872       3.39114521      -5.09671347
N        4.21216127       2.72321990      -4.20772465
N        5.79216785       2.92466014      -6.00192445
C        6.25714638       4.03499648      -6.66796590
C        7.16117764       4.11445917      -7.73820598
C        7.47411290       5.37305467      -8.26526100
C        6.89848515       6.53124559      -7.73947837
C        5.99940461       6.47538833      -6.66784778
C        5.70443585       5.20743587      -6.15341920
H       -0.38722387       0.68118884      -2.62037022
H        1.03962971       2.10329231      -4.04724513
H        3.75845259       2.68451987      -0.74842517
H        2.33194632       1.25931888       0.67633500
H        2.53889215       5.16853316      -2.62138286
H        6.57491378       5.06335229      -2.96016808
H        7.91471609       6.60570591      -1.59338899
H        7.10446178       8.89602850      -1.12377177
H        3.55884979       8.12464425      -3.43722377
H        4.23205078       1.70738199      -4.20775373
H        7.60294661       3.21066469      -8.14277427
H        8.17424978       5.44615065      -9.09435976
H        7.15759930       7.49798308      -8.16711148
H        5.56537251       7.38059824      -6.25736116
C        4.79729622       9.96914446      -1.97063610
C        4.39312995      11.08030776      -1.73314556
Br       3.73962728      12.87696483      -1.34914344
C       -0.88188591      -0.88188591      -0.88188591
C       -2.25373873      -0.94535998      -0.64324327
C       -3.05937361      -1.75360769      -1.44890867
C       -2.49428956      -2.49558024      -2.49447267
C       -1.11496815      -2.42301035      -2.72521080
C       -0.30795447      -1.61707900      -1.91813800
C       -3.34548505      -3.34019165      -3.33855077
C       -3.77816108      -2.90007182      -4.53330474
C       -4.66222788      -3.77398345      -5.40191528
H       -5.61250041      -3.24490180      -5.55836746
C       -3.99882026      -4.03601010      -6.75013474
C       -3.05339947      -5.06247226      -6.92779191
C       -2.45200070      -5.27391131      -8.17005423
C       -2.76738719      -4.45002583      -9.24879870
C       -3.68285893      -3.41477994      -9.07883315
C       -4.29626927      -3.20290337      -7.84314339
N       -5.04940018      -5.02335560      -4.72972185
C       -4.54648576      -5.40449179      -3.50688985
N       -3.70038384      -4.57963837      -2.86308361
N       -5.00450704      -6.57432535      -3.13992005
C       -5.87188808      -6.94793691      -4.14028377
C       -6.64544620      -8.11299312      -4.25540348
C       -7.47503219      -8.26459295      -5.37280344
C       -7.53586576      -7.27628757      -6.35705577
C       -6.76786970      -6.10939660      -6.26537442
C       -5.94209006      -5.98071354      -5.14248733
H       -2.70441965      -0.37364230       0.16372676
H       -4.12967271      -1.80168033      -1.25881412
H       -0.66272010      -2.99812458      -3.53055294
H        0.76175767      -1.57189029      -2.10479759
H       -3.51044724      -1.91534417      -4.90301676
H       -2.78158184      -5.71681991      -6.10003239
H       -1.73612029      -6.08343566      -8.29425504
H       -2.29210622      -4.62095815     -10.21119769
H       -5.00557232      -2.38587620      -7.72926929
H       -3.34906321      -4.84942953      -1.94869376
H       -6.59462148      -8.87553412      -3.48622998
H       -8.07828054      -9.16410156      -5.47237809
H       -8.18910506      -7.41750604      -7.21608276
H       -6.81189298      -5.35150240      -7.03993652
C       -3.99775918      -2.55166757     -10.18765003
C       -4.26148814      -1.82881096     -11.11628416
Br      -4.68791557      -0.66001296     -12.61780702
C       -0.88188591       0.88188591       0.88188591
C       -1.13503503       2.20033691       0.50697003
C       -1.94003487       3.00688621       1.31496889
C       -2.49412720       2.49469865       2.49551661
C       -2.23352950       1.16831530       2.86134450
C       -1.42618813       0.36169860       2.05528474
C       -3.34058204       3.34537513       3.33827029
C       -4.68092395       3.27677334       3.25384035
C       -5.55364535       4.16117524       4.12330603
H       -6.16409308       4.79062042       3.46105616
C       -6.46731642       3.31430123       5.00334746
C       -6.03337148       2.78004889       6.23024328
C       -6.88632640       1.99803535       7.01160448
C       -8.17810137       1.71777092       6.57033943
C       -8.61063086       2.21999972       5.34584145
C       -7.76794564       3.01101028       4.56336012
N       -4.76809119       5.12126827       4.91311817
C       -3.39262809       5.11291335       4.95232595
N       -2.72333253       4.22301510       4.19675820
N       -2.92714204       6.03134860       5.76026179
C       -4.03949576       6.69074143       6.22987157
C       -4.12077083       7.76943133       7.12364064
C       -5.38148718       8.28675252       7.44418887
C       -6.54001052       7.74315995       6.88603864
C       -6.48227310       6.66288866       5.99747896
C       -5.21214730       6.15847507       5.69466857
H       -0.71228054       2.60907818      -0.40702353
H       -2.13438474       4.03600187       1.01978055
H       -2.65340351       0.75977416       3.77821996
H       -1.22822050      -0.66499960       2.35170930
H       -5.16910884       2.59437022       2.56532911
H       -5.02600826       2.97607553       6.59635036
H       -6.54025794       1.60750484       7.96604821
H       -8.83378444       1.10601142       7.18446619
H       -8.12289578       3.39035047       3.60747156
H       -1.70739891       4.23368220       4.20610537
H       -3.21673375       8.18782120       7.55183062
H       -5.45598803       9.12227663       8.13649553
H       -7.50842109       8.16350850       7.15076427
H       -7.38758460       6.23864682       5.57710049
C       -9.93926511       1.91782746       4.87998421
C      -11.05199629       1.66475820       4.48982877
Br     -12.85118850       1.25556661       3.85898043
C        0.88188591      -0.88188591       0.88188591
C        0.91404848      -0.66920347       2.25909002
C        1.72229580      -1.47481825       3.06477593
C        2.49558336      -2.49444760       2.49431151
C        2.45431698      -2.69925721       1.10961511
C        1.64838404      -1.89216347       0.30262395
C        3.34005670      -3.33865596       3.34551481
C        2.91532437      -4.55002459       3.74618868
C        3.78893458      -5.41883775       4.63035428
H        3.24473875      -5.60424938       5.56678153
C        4.09034290      -6.74836124       3.94626097
C        5.13823458      -6.88739247       3.01803660
C        5.38578054      -8.11320413       2.39698155
C        4.57740985      -9.21372451       2.67507737
C        3.52146987      -9.08196051       3.57304165
C        3.27338370      -7.86296463       4.20596771
N        5.01705093      -4.73034871       5.05507799
C        5.38362811      -3.49066790       4.58357138
N        4.56276253      -2.84637264       3.73397065
N        6.53689306      -3.11022583       5.07163354
C        6.91332045      -4.12010314       5.92668518
C        8.06522059      -4.22789142       6.72073078
C        8.22276515      -5.35831405       7.53134937
C        7.25310176      -6.36253511       7.55357224
C        6.09972279      -6.27832161       6.76459631
C        5.96490411      -5.14204524       5.95834158
H        0.31787962       0.11748095       2.71393652
H        1.74586301      -1.30500702       4.13929712
H        3.05387930      -3.48421763       0.65330071
H        1.62762044      -2.05849679      -0.77118702
H        1.94346232      -4.93338142       3.45196442
H        5.78124613      -6.04190561       2.77528241
H        6.21131524      -8.20753578       1.69495998
H        4.77649347     -10.16305582       2.18471276
H        2.44068045      -7.77897115       4.90106621
H        4.82119357      -1.92016716       3.40582576
H        8.81326063      -3.44323771       6.69988723
H        9.11221124      -5.45234283       8.15020613
H        7.39858116      -7.23140134       8.19271135
H        5.35656597      -7.06813750       6.77862843
C        2.67449074     -10.21329201       3.84929404
C        1.96514571     -11.16078214       4.08065541
Br       0.81819480     -12.69279355       4.45474719
