165
Properties=species:S:1:pos:R:3 pbc="F F F"
C        0.00000000       0.00000000       0.00000000
C        0.88178739       0.88178739      -0.88178739
C        0.49315115       1.15740608      -2.19196276
C        1.29986286       1.96419399      -2.99809302
C        2.49387226       2.49508407      -2.49408448
C        2.87499336       2.21051770      -1.17670265
C        2.06895024       1.40361188      -0.36996084
C        3.33897143       3.34361815      -3.33921524
C        3.16115843       4.67573597      -3.36926598
C        4.05633498       5.55220874      -4.22898876
H        3.40709804       6.10727377      -4.91839418
C        4.86875568       6.50273756      -3.36737459
C        5.81325779       6.03556820      -2.43385158
C        6.53313905       6.93804742      -1.64816072
Br       7.78836060       6.29046305      -0.39216666
C        6.33124561       8.31125168      -1.77792592
C        5.39948543       8.78495534      -2.70063605
C        4.67861194       7.88352951      -3.48026598
F        3.78857989       8.36451145      -4.35940030
N        4.93838737       4.76179322      -5.09908417
C        5.06264187       3.39551903      -4.99889918
N        4.31205029       2.73504272      -4.09685668
N        5.92511544       2.92399247      -5.86338888
C        6.33400855       4.01761246      -6.59127653
C        7.23369234       4.08252537      -7.66594513
C        7.47509923       5.32162405      -8.27125804
C        6.83330500       6.47508399      -7.81687416
C        5.93653634       6.43419602      -6.74289391
C        5.71372763       5.18662747      -6.14886805
H       -0.43064410       0.75030177      -2.59452083
H        0.99487287       2.17423916      -4.02118952
H        3.80218601       2.61337523      -0.77449454
H        2.37577371       1.18863230       0.65029027
H        2.38769146       5.15890669      -2.78032012
H        5.98670291       4.96609375      -2.32256715
H        6.89202166       9.01547533      -1.16861863
H        5.23023997       9.85125896      -2.81697122
H        4.35860683       1.72105768      -4.07004325
H        7.72292823       3.18130577      -8.01825403
H        8.16762264       5.38206897      -9.10742359
H        7.03370588       7.42575177      -8.30729284
H        5.44145182       7.33572619      -6.39902032
C       -0.88178739      -0.88178739      -0.88178739
C       -2.21931491      -1.08061146      -0.54259361
C       -3.02557609      -1.88703179      -1.34954199
C       -2.49460959      -2.49360977      -2.49482145
C       -1.14916274      -2.28783945      -2.82521150
C       -0.34213725      -1.48173013      -2.01865558
C       -3.34132259      -3.33770150      -3.34278073
C       -4.03497252      -2.80668064      -4.36450721
C       -4.89188722      -3.69103744      -5.25460781
H       -5.91751334      -3.30212036      -5.21313230
C       -4.36965468      -3.68870943      -6.68050372
C       -3.09286039      -4.18531760      -7.00449958
C       -2.63938229      -4.15506750      -8.32489740
Br      -0.91736560      -4.81590060      -8.73772412
C       -3.44248626      -3.63778795      -9.34014900
C       -4.70947607      -3.14488290      -9.03071786
C       -5.15867296      -3.17118961      -7.71254486
F       -6.38020743      -2.69083983      -7.44144439
N       -4.99101963      -5.06519809      -4.74304704
C       -4.23893059      -5.52922696      -3.68890253
N       -3.40346449      -4.68182899      -3.05865621
N       -4.48658016      -6.78955712      -3.43635951
C       -5.47840621      -7.14213664      -4.32235469
C       -6.13848196      -8.37107143      -4.47260944
C       -7.14497737      -8.48379949      -5.43920445
C       -7.48942163      -7.39444838      -6.24139313
C       -6.84015668      -6.16111850      -6.11235109
C       -5.83364226      -6.07166374      -5.14391715
H       -2.64233701      -0.61605180       0.34421031
H       -4.06808612      -2.04257103      -1.07964440
H       -0.72345947      -2.75666264      -3.70993367
H        0.70082173      -1.33050577      -2.28443171
H       -3.99640874      -1.74458407      -4.58592546
H       -2.45402856      -4.59699922      -6.22433603
H       -3.09207517      -3.61512779     -10.36891266
H       -5.34981228      -2.73998731      -9.80867056
H       -2.89859876      -5.01003626      -2.24107274
H       -5.87073063      -9.21074935      -3.84100805
H       -7.66538354      -9.43077882      -5.56095284
H       -8.27883777      -7.50564297      -6.98226974
H       -7.11683858      -5.32036064      -6.73899911
C       -0.88178739       0.88178739       0.88178739
C       -0.52236887       1.11102334       2.20912777
C       -1.32906239       1.91782689       3.01526059
C       -2.49384542       2.49507743       2.49411796
C       -2.84579606       2.25688653       1.15953111
C       -2.03975684       1.45000023       0.35276588
C       -3.33885269       3.34360808       3.33934405
C       -3.12602728       4.66897859       3.41115451
C       -4.02072482       5.54642299       4.27038467
H       -3.37612081       6.06442810       4.99221707
C       -4.78294404       6.54206328       3.41386051
C       -5.71344092       6.12667799       2.44255866
C       -6.38659557       7.06968518       1.66306643
Br      -7.62349990       6.49135565       0.35613476
C       -6.15136614       8.43274958       1.83630749
C       -5.23312498       8.85531005       2.79664181
C       -4.55878213       7.91349161       3.57013370
F       -3.68083154       8.34566023       4.48599988
N       -4.94761807       4.75758536       5.09406134
C       -5.10590079       3.39849162       4.95266766
N       -4.34867094       2.74203834       4.05324041
N       -6.00446121       2.92791158       5.78012401
C       -6.40371537       4.01240185       6.52678031
C       -7.33080361       4.07321485       7.57814437
C       -7.55536523       5.30173593       8.21088016
C       -6.87028431       6.44878692       7.80619192
C       -5.94547922       6.41204316       6.75610389
C       -5.74004393       5.17526999       6.13390923
H        0.37856244       0.66770698       2.62503396
H       -1.04702916       2.09161445       4.05165794
H       -3.75024665       2.69604416       0.74376498
H       -2.32383444       1.27125602      -0.68097472
H       -2.32374126       5.14622254       2.85695446
H       -5.91255277       5.06582661       2.29698442
H       -6.67578619       9.16846914       1.23186028
H       -5.03843548       9.91297313       2.94706155
H       -4.42183560       1.73083077       3.99704139
H       -7.85379414       3.17673693       7.89195696
H       -8.26894837       5.35877542       9.02939142
H       -7.05847164       7.39105845       8.31722039
H       -5.41687023       7.30844122       6.45088688
C        0.88178739      -0.88178739       0.88178739
C        2.26747587      -0.84071421       0.73432990
C        3.07366873      -1.64723962       1.54124153
C        2.49442280      -2.49366521       2.49495280
C        1.10108904      -2.52763103       2.63349363
C        0.29414442      -1.72157576       1.82680277
C        3.34055212      -3.33801146       3.34324124
C        3.79607939      -2.88573779       4.52434320
C        4.65281582      -3.77473489       5.40998176
H        5.60009760      -3.24830108       5.58436730
C        3.94773500      -4.06878389       6.72234894
C        2.73338980      -4.77934509       6.76994267
C        2.10549120      -5.02006476       7.99379122
Br       0.46957133      -5.96583829       8.03558071
C        2.67111917      -4.56531904       9.18398501
C        3.87447927      -3.86201443       9.14858314
C        4.49726505      -3.61837189       7.92677049
F        5.65293849      -2.93958588       7.91996728
N        5.03646998      -5.02438872       4.73840606
C        4.51761277      -5.41396964       3.52547767
N        3.65234661      -4.59925831       2.89234477
N        4.99330277      -6.57301689       3.14617714
C        5.89852428      -6.92292240       4.12145085
C        6.71782695      -8.05880577       4.20553011
C        7.58853575      -8.18486972       5.29457585
C        7.64417799      -7.19934855       6.28173660
C        6.83186869      -6.06104773       6.22070985
C        5.96506860      -5.95745770       5.12669685
H        2.72842921      -0.18870798      -0.00295870
H        4.15455769      -1.61491098       1.42083289
H        0.63847024      -3.18384288       3.36774266
H       -0.78594126      -1.75753435       1.94252265
H        3.56043498      -1.88720965       4.87927364
H        2.27976220      -5.14561198       5.84998963
H        2.18489122      -4.75336446      10.13785994
H        4.33095110      -3.50183051      10.06568853
H        3.32164244      -4.85975023       1.96831509
H        6.67454034      -8.81666065       3.43128703
H        8.23056698      -9.05948791       5.36706030
H        8.33303858      -7.31777756       7.11593434
H        6.88439278      -5.30013924       6.99166631
