186
Properties=species:S:1:pos:R:3 pbc="F F F"
C        1.79169141       1.79169141      -1.79169141
C        1.40305517       2.06731010      -3.10186678
C        2.20976689       2.87409801      -3.90799705
C        3.40377628       3.40498809      -3.40398851
C        3.78489738       3.12042172      -2.08660667
C        2.97885426       2.31351590      -1.27986486
C        4.24887545       4.25352217      -4.24911927
C        4.07106246       5.58563999      -4.27917000
C        4.96623901       6.46211276      -5.13889278
H        4.31700206       7.01717780      -5.82829820
C        5.77865971       7.41264158      -4.27727862
C        6.72316181       6.94547223      -3.34375560
C        7.44304307       7.84795144      -2.55806475
Br       8.69826463       7.20036707      -1.30207069
C        7.24114964       9.22115571      -2.68782994
C        6.30938946       9.69485937      -3.61054008
C        5.58851596       8.79343353      -4.39017001
F        4.69848392       9.27441547      -5.26930433
N        5.84829140       5.67169724      -6.00898820
C        5.97254590       4.30542305      -5.90880320
N        5.22195431       3.64494675      -5.00676070
N        6.83501946       3.83389650      -6.77329291
C        7.24391257       4.92751649      -7.50118055
C        8.14359636       4.99242940      -8.57584915
C        8.38500325       6.23152807      -9.18116207
C        7.74320902       7.38498801      -8.72677818
C        6.84644037       7.34410004      -7.65279793
C        6.62363166       6.09653150      -7.05877207
H        0.47925993       1.66020579      -3.50442485
H        1.90477689       3.08414319      -4.93109354
H        4.71209004       3.52327925      -1.68439857
H        3.28567774       2.09853632      -0.25961375
H        3.29759548       6.06881072      -3.69022414
H        6.89660693       5.87599777      -3.23247117
H        7.80192568       9.92537936      -2.07852265
H        6.14014399      10.76116298      -3.72687525
H        5.26851086       2.63096170      -4.97994727
H        8.63283226       4.09120979      -8.92815805
H        9.07752666       6.29197300     -10.01732761
H        7.94360990       8.33565579      -9.21719686
H        6.35135584       8.24563021      -7.30892435
C       -1.79169141      -1.79169141      -1.79169141
C       -3.11828730      -2.02305473      -1.43089002
C       -3.92455886      -2.82946184      -2.23784125
C       -3.40453690      -3.40351011      -3.40470587
C       -2.06998577      -3.16521712      -3.75672288
C       -1.26295190      -2.35909846      -2.95018466
C       -4.25132444      -4.24757895      -4.25261350
C       -4.97483595      -3.71073282      -5.25030369
C       -5.83187307      -4.59444376      -6.14092772
H       -6.86375430      -4.22649344      -6.07223033
C       -5.33772328      -4.55460991      -7.57624672
C       -4.05822193      -5.01989564      -7.93427207
C       -3.63127562      -4.95551322      -9.26227042
Br      -1.90530770      -5.57456749      -9.72082720
C       -4.46381061      -4.43466453     -10.25166015
C       -5.73372461      -3.97261012      -9.90845417
C       -6.15651028      -4.03292442      -8.58268480
F       -7.38149395      -3.58179889      -8.27891088
N       -5.89466092      -5.97982363      -5.65449229
C       -5.11338221      -6.44918262      -4.62420732
N       -4.28215187      -5.59785866      -3.99365124
N       -5.33186950      -7.71871380      -4.39162557
C       -6.33387215      -8.07355939      -5.26517807
C       -6.97309785      -9.31204566      -5.42673140
C       -7.99593194      -9.42587228      -6.37588917
C       -8.37677497      -8.32829067      -7.14990957
C       -7.74885440      -7.08521579      -7.00926815
C       -6.72551967      -6.99468861      -6.05872695
H       -3.53273238      -1.58391344      -0.52724475
H       -4.95842976      -3.01046866      -1.95111520
H       -1.65273822      -3.60860786      -4.65842177
H       -0.22846910      -2.18247507      -3.23288364
H       -4.96095181      -2.64403988      -5.45163864
H       -3.39651053      -5.43389109      -7.17467426
H       -4.13405278      -4.38546724     -11.28630767
H       -6.39676669      -3.56546989     -10.66594564
H       -3.75522450      -5.93174355      -3.19245178
H       -6.67703187     -10.15827786      -4.81689037
H       -8.50038381     -10.38032727      -6.50611620
H       -9.17823287      -8.44066865      -7.87756104
H       -8.05377157      -6.23817330      -7.61396553
C       -1.79169141       1.79169141       1.79169141
C       -1.39013223       2.08887191       3.09322791
C       -2.19685224       2.89565240       3.89935731
C       -3.40378907       3.40499061       3.40397321
C       -3.79781095       3.09886659       2.09524824
C       -2.99176562       2.29195199       1.28851741
C       -4.24893165       4.25352454       4.24906071
C       -4.08776007       5.58805108       4.26006130
C       -4.98314457       6.46407464       5.12002534
H       -4.33240918       7.03602072       5.79404817
C       -5.81841040       7.39322876       4.25694075
C       -6.76855916       6.90233179       3.34149869
C       -7.50973132       7.78557792       2.55375002
Br      -8.77230974       7.10626843       1.32212422
C       -7.32375139       9.16275946       2.66362444
C       -6.38656203       9.65989129       3.56833558
C       -5.64448756       8.77763356       4.34999838
F       -4.74966129       9.28096114       5.21158129
N       -5.84401503       5.67377532       6.01118648
C       -5.95208436       4.30487786       5.92980993
N       -5.20454964       3.64245530       5.02665681
N       -6.79751720       3.83359136       6.81110031
C       -7.21112653       4.93117014       7.53031294
C       -8.09795888       4.99844913       8.61546691
C       -8.34750825       6.24202917       9.20815597
C       -7.72625236       7.39759111       8.73113175
C       -6.84263245       7.35430527       7.64640063
C       -6.61142808       6.10216645       7.06534069
H       -0.45622275       1.69860238       3.48906544
H       -1.88170506       3.12255472       4.91575384
H       -4.73505871       3.48485170       1.69985744
H       -3.30864721       2.06012926       0.27505134
H       -3.32799771       6.07337349       3.65525914
H       -6.92973670       5.82942528       3.24591389
H       -7.90109367       9.85203551       2.05269850
H       -6.22947941      10.72963900       3.66906381
H       -5.23850291       2.62770481       5.01321210
H       -8.57118387       4.09570640       8.98530982
H       -9.03016033       6.30440782      10.05225912
H       -7.93257037       8.35183755       9.21205463
H       -6.36345748       8.25753976       7.28491316
C        1.79169141      -1.79169141       1.79169141
C        3.17256262      -1.79954102       1.60012841
C        3.97876816      -2.60604382       2.40704996
C        3.40436725      -3.40355357       3.40483207
C        2.01579343      -3.38863546       3.58749688
C        1.20882938      -2.58257145       2.78083420
C        4.25062087      -4.24783467       4.25306135
C        4.75748122      -3.77397810       5.40441313
C        5.61414225      -4.66204761       6.29105469
H        6.58237366      -4.16102532       6.41907909
C        4.94261716      -4.89259094       7.63337180
C        3.70898034      -5.56213913       7.74127017
C        3.11338270      -5.74461716       8.99105939
Br       1.45111524      -6.63584272       9.11374443
C        3.73060189      -5.27153015      10.14800325
C        4.95342953      -4.60850227      10.05285710
C        5.54407510      -4.42287769       8.80516672
F        6.71941818      -3.78193294       8.74085260
N        5.93721662      -5.94354083       5.64821939
C        5.36801402      -6.35372783       4.46503030
N        4.50860468      -5.53177324       3.83328384
N        5.79518720      -7.53859081       4.10843086
C        6.71985647      -7.88687645       5.06587669
C        7.50583763      -9.04522815       5.16080913
C        8.40660289      -9.16526512       6.22582538
C        8.52429657      -8.15191175       7.17876690
C        7.74611394      -6.99065431       7.10657009
C        6.84839826      -6.89334788       6.03718908
H        3.62968476      -1.18576865       0.82843716
H        5.05573620      -2.61204398       2.25223344
H        1.55677997      -4.00665021       4.35633767
H        0.13240139      -2.58036862       2.93105781
H        4.56436219      -2.75790655       5.73436160
H        3.21503411      -5.94204277       6.84799900
H        3.26953314      -5.41428231      11.12201224
H        5.44993761      -4.23485477      10.94338984
H        4.14060724      -5.81006411       2.92874848
H        7.41435089      -9.82493850       4.41291072
H        9.02321348     -10.05730114       6.30631265
H        9.23548084      -8.26640301       7.99457871
H        7.84681852      -6.20829062       7.85080125
C       -0.00445707       0.01189536      -1.78238275
H       -0.66409135       0.67374010      -2.43557963
H        0.65740317      -0.63156657      -2.45157240
C       -0.90989263      -0.90692880      -0.91072765
C        0.90977584       0.90977584      -0.90977584
C       -0.00465871       1.77757030       0.00794375
H       -0.66225468       2.44313916      -0.64384735
H        0.64322798       2.43503045       0.67728295
C       -1.78241447       0.00034974      -0.00472694
H       -2.45427497      -0.65498947       0.64260836
H       -2.43311707       0.67328779      -0.65473579
C       -0.91132561       0.90220522       0.91563759
C       -0.01476271      -0.02253852       1.78660255
H       -0.67934791      -0.69751639       2.42135241
H        0.63392994       0.61504881       2.47327442
C        0.01484550      -1.77751727      -0.01636693
H        0.67870853      -2.42144646      -0.68295456
H       -0.62264859      -2.45592969       0.64226336
C        1.78714474       0.01002794       0.00389507
H        2.44202412       0.67113390       0.66197326
H        2.45385902      -0.65136977      -0.64189061
C        0.91606151      -0.90478549       0.90901405
