173
Properties=species:S:1:pos:R:3 pbc="F F F"
C        0.00000000       0.00000000       0.00000000
C        0.88193731       0.88193731      -0.88193731
C        0.48786356       2.18870001      -1.16532457
C        1.29169973       2.99469428      -1.97258961
C        2.48557188       2.49036361      -2.49254721
C        2.88155170       1.17805302      -2.20705227
C        2.07294859       0.37118453      -1.39694395
C        4.13291731       0.64708314      -2.75521182
C        5.28286606       0.75050308      -2.06787622
C        6.56696258       0.15984311      -2.62560805
H        7.29824086       0.97496255      -2.70568991
C        7.10077984      -0.93662855      -1.71115618
C        8.34473219      -0.78649728      -1.07535522
C        8.83960994      -1.78582986      -0.23448796
C        8.09468119      -2.94225285      -0.00643069
C        6.85639012      -3.09747161      -0.62391115
C        6.35919297      -2.10921534      -1.47273640
N        6.40430475      -0.33866939      -3.99867221
C        5.18429047      -0.40578597      -4.63038235
N        4.08794120       0.03623873      -3.98652221
N        5.29163717      -0.89678189      -5.83944806
C        6.63905922      -1.10761559      -6.01936292
C        7.31707336      -1.60110972      -7.14442115
C        8.71242409      -1.70509343      -7.10124160
C        9.42106841      -1.32565051      -5.96010110
C        8.76404373      -0.83683288      -4.82459073
C        7.36923176      -0.74403217      -4.88690189
H       -0.44111251       2.58710053      -0.76553559
H        0.98761778       4.01336287      -2.19852271
H        3.10416880       3.12418452      -3.12503773
H        2.37323256      -0.65005761      -1.17575673
H        5.32351335       1.23386057      -1.09720540
H        8.94359920       0.10802211      -1.23465705
H        9.80802861      -1.66337358       0.24545388
H        8.48618953      -3.71324059       0.65197808
H        5.39171439      -2.24894562      -1.95186510
H        3.19628426       0.02533055      -4.47163398
H        6.76010070      -1.88956856      -8.02885415
H        9.24715462      -2.08478458      -7.96855200
H       10.50565510      -1.41514070      -5.95132980
H        9.32404100      -0.55122785      -3.94172094
C        6.07996274      -4.28555979      -0.38058625
C        5.42970482      -5.28058364      -0.17680164
Br       4.37829274      -6.88945305       0.15270083
C       -0.88193731      -0.88193731      -0.88193731
C       -0.54056543      -1.08284839      -2.21847433
C       -1.34660250      -1.88666911      -3.02571201
C       -2.48992878      -2.48572886      -2.49282507
C       -2.83210799      -2.28442958      -1.15011942
C       -2.02173452      -1.47709178      -0.34225076
C       -4.03382543      -2.91028639      -0.59110044
C       -3.97153180      -4.12005857      -0.00965498
C       -5.21445709      -4.74222164       0.60426499
H       -5.37971344      -5.70810375       0.10892387
C       -5.03418747      -4.94528538       2.10416538
C       -5.04480340      -6.23960347       2.65081673
C       -4.87825338      -6.43384255       4.02382789
C       -4.68602332      -5.34083533       4.86799961
C       -4.66437247      -4.05432557       4.33586838
C       -4.83976523      -3.85057621       2.96762741
N       -6.42807219      -3.96147718       0.32524180
C       -6.40039948      -2.72722347      -0.28126391
N       -5.21860533      -2.21708093      -0.67501588
N       -7.60224426      -2.22344621      -0.40861288
C       -8.44718048      -3.18973003       0.08610396
C       -9.84778497      -3.18396509       0.17136527
C      -10.49787119      -4.30709280       0.69639173
C       -9.76879974      -5.41591635       1.12919709
C       -8.37076533      -5.44005471       1.05901846
C       -7.74017581      -4.30639022       0.53446456
H        0.34688285      -0.61807017      -2.64033628
H       -1.08612318      -2.04436595      -4.06901423
H       -3.11550077      -3.10730368      -3.13058660
H       -2.28514524      -1.31360964       0.69982320
H       -3.03943413      -4.67169226       0.05654707
H       -5.18991732      -7.10900960       2.01264856
H       -4.89732905      -7.43958213       4.43771004
H       -4.55404737      -5.50165721       5.93473372
H       -4.82563490      -2.83775542       2.56875645
H       -5.20639672      -1.32589345      -1.16095862
H      -10.40752650      -2.32078785      -0.17107193
H      -11.58303099      -4.31300481       0.76511375
H      -10.29729274      -6.27740802       1.53285657
H       -7.81459721      -6.30393629       1.40399942
C       -4.45417516      -2.92487470       5.20406065
C       -4.27813490      -1.97895959       5.93117168
Br      -3.99349271      -0.44949487       7.10684871
C       -0.88193731       0.88193731       0.88193731
C       -0.52710309       1.10301797       2.21176709
C       -1.33309910       1.90685350       3.01903103
C       -2.48984356       2.48576442       2.49287473
C       -2.84555386       2.26421155       1.15689158
C       -2.03518716       1.45690354       0.34898636
C       -4.06131603       2.86890413       0.60499211
C       -4.02056262       4.07222856       0.00845417
C       -5.27813673       4.67207409      -0.59779708
H       -5.44911868       5.64182417      -0.11204954
C       -5.11822717       4.85915846      -2.10207816
C       -5.15097820       6.14656718      -2.66395525
C       -5.00316685       6.32619577      -4.04109458
C       -4.80784023       5.22545108      -4.87443228
C       -4.76432322       3.94580592      -4.32729949
C       -4.92091816       3.75650543      -2.95470955
N       -6.47882895       3.88033874      -0.29486012
C       -6.42903474       2.65391139       0.32594072
N       -5.23655986       2.16268459       0.71145769
N       -7.62310900       2.13741345       0.47378090
C       -8.48548257       3.08751399      -0.02219002
C       -9.88683255       3.06402124      -0.09046899
C      -10.55663822       4.17290059      -0.62096655
C       -9.84621250       5.28503476      -1.07572826
C       -8.44783380       5.32668564      -1.02271785
C       -7.79740050       4.20703286      -0.49233188
H        0.37085601       0.65397859       2.62840103
H       -1.06212064       2.08022312       4.05715960
H       -3.11522198       3.10748690       3.13068217
H       -2.30901213       1.27772933      -0.68780978
H       -3.09604508       4.63409764      -0.07556341
H       -5.29895346       7.02181886      -2.03449396
H       -5.03931103       7.32656880      -4.46667869
H       -4.69054290       5.37495094      -5.94452298
H       -4.88981214       2.74881210      -2.54399037
H       -5.20780487       1.27763487       1.20780905
H      -10.43199446       2.19842650       0.26896533
H      -11.64253260       4.16504381      -0.67665437
H      -10.38983816       6.13523007      -1.48322403
H       -7.90628362       6.19291131      -1.38466084
C       -4.55087857       2.80854719      -5.18443656
C       -4.37211867       1.85609301      -5.90228887
Br      -4.08307904       0.31605515      -7.06299533
C        0.88193731      -0.88193731       0.88193731
C        0.76560337      -2.26906216       0.80722262
C        1.56930028      -3.07577379       1.61390956
C        2.48538476      -2.49180359       2.49129436
C        2.60260750      -1.09852842       2.56552107
C        1.79470790      -0.29121588       1.75515328
C        3.56163947      -0.48495449       3.48861831
C        4.81251597      -0.19870563       3.09002376
C        5.78657405       0.47565486       4.04149456
H        6.66254960      -0.17945374       4.13688998
C        6.20705412       1.84050857       3.50876193
C        7.54873389       2.08794089       3.17279713
C        7.94133467       3.33525667       2.68219003
C        6.99893471       4.34806427       2.50798860
C        5.66493094       4.11094593       2.82884464
C        5.26594659       2.87182315       3.32859060
N        5.24959043       0.59016086       5.40487801
C        3.95136239       0.26927207       5.72679653
N        3.13689176      -0.20705310       4.76675728
N        3.70456529       0.46757333       6.99731138
C        4.90217560       0.88301011       7.53164106
C        5.21404362       1.21301602       8.85935719
C        6.52555950       1.58935514       9.17236789
C        7.50933685       1.63711738       8.18329953
C        7.21832762       1.31808290       6.85155686
C        5.90098490       0.94790899       6.55902556
H        0.05329092      -2.73029411       0.12793858
H        1.48061548      -4.15769488       1.56119300
H        3.10496937      -3.12821918       3.12020251
H        1.87825300       0.79129132       1.81197000
H        5.15273072      -0.41851548       2.08333312
H        8.30253219       1.31294234       3.29668852
H        8.98429430       3.51897287       2.43387971
H        7.31292049       5.31454756       2.12259793
H        4.21989995       2.70492380       3.57965772
H        2.19272596      -0.48349474       5.01702809
H        4.44555134       1.16916168       9.62299662
H        6.77762526       1.84535413      10.19865091
H        8.52194021       1.93195034       8.45185433
H        7.98871617       1.36485801       6.09067592
C        4.68788642       5.15152308       2.63862587
C        3.86961163       6.02300645       2.47931764
Br       2.54653050       7.43212135       2.22172971
