173
Properties=species:S:1:pos:R:3 pbc="F F F"
C        0.00000000       0.00000000       0.00000000
C        0.88167606       0.88167606      -0.88167606
C        2.23667491       0.59409820      -1.01678888
C        3.03914985       1.39511976      -1.83783443
C        2.49910638       2.49082923      -2.52863857
C        1.12761004       2.75554499      -2.38469019
C        0.32322687       1.96053896      -1.55994191
C        3.36687201       3.24330703      -3.45369752
C        3.10207656       4.46716897      -3.93918009
C        3.95566397       5.05157938      -5.01964129
O        5.07458720       4.60324048      -5.24717475
C        3.34117380       6.17617039      -5.81749889
C        1.87836241       6.08403694      -6.15293169
O        1.18759441       5.10860415      -5.86246437
N        1.29498711       7.12926830      -6.80052932
H        0.30558448       7.02758488      -6.99295984
C        1.99317322       8.23536613      -7.26569054
C        1.29797606       9.23412162      -7.95366616
C        1.99033686      10.33293114      -8.45632813
C        3.36644332      10.41965545      -8.26737099
Br       4.31241418      11.90197625      -8.96206272
C        4.05530418       9.42282981      -7.57049373
C        3.37191924       8.30950569      -7.05177939
C        4.06904278       7.22875696      -6.28248692
C        5.52894942       7.32601055      -6.01700481
C        6.00528559       7.99027139      -4.87956771
C        7.37725868       8.18937849      -4.70791118
C        8.27800843       7.72869142      -5.66835418
C        7.81151268       7.05989237      -6.79887618
C        6.44178647       6.85937222      -6.97460705
H        2.67756176      -0.25480742      -0.50082870
H        4.09287145       1.14359508      -1.94212695
H        0.65176827       3.56443310      -2.93371487
H       -0.73702241       2.18333206      -1.47176695
H        4.25763454       2.71676594      -3.79453714
H        2.22860128       5.02851106      -3.63407353
H        0.22553018       9.16398818      -8.10773668
H        1.45189888      11.10906396      -8.99407050
H        5.13008023       9.52622672      -7.43986641
H        5.31523443       8.37602699      -4.13369772
H        7.74544776       8.71180467      -3.82865844
H        9.34491980       7.88881011      -5.53528322
H        8.51303777       6.69731688      -7.54581114
H        6.08987521       6.34390546      -7.86523948
C       -0.88167606      -0.88167606      -0.88167606
C       -0.31060495      -1.63060363      -1.90635341
C       -1.11937467      -2.44964311      -2.70308626
C       -2.50392481      -2.52710300      -2.48754638
C       -3.05607847      -1.77011108      -1.44165567
C       -2.25156584      -0.94540406      -0.64673784
C       -3.29468145      -3.47670376      -3.29249135
C       -4.63083932      -3.45198225      -3.42560405
C       -5.34252433      -4.57766600      -4.10669432
O       -4.73464392      -5.35551048      -4.83484803
C       -6.81643527      -4.70997592      -3.80843190
C       -7.27850288      -4.43197351      -2.40485465
O       -6.50295147      -4.16852562      -1.48718585
N       -8.61355300      -4.46819261      -2.14303912
H       -8.87779974      -4.26110055      -1.18722893
C       -9.57187431      -4.85045196      -3.07190363
C      -10.91392785      -4.88918090      -2.68265509
C      -11.88278756      -5.30372607      -3.59308251
C      -11.49968609      -5.67540681      -4.87837686
Br     -12.81013733      -6.25394314      -6.11237269
C      -10.15744575      -5.62581646      -5.26536552
C       -9.16693050      -5.20498076      -4.36129306
C       -7.71988442      -5.11900870      -4.74139353
C       -7.29155344      -5.45528464      -6.12512669
C       -7.27450987      -4.47508159      -7.12553323
C       -6.99740083      -4.82896719      -8.44818032
C       -6.73763177      -6.15925322      -8.77816903
C       -6.74518173      -7.13870270      -7.78639680
C       -7.02209643      -6.78966942      -6.46399990
H        0.76048410      -1.59649152      -2.08757562
H       -0.65069103      -3.03910740      -3.48879504
H       -4.11549570      -1.82986765      -1.20455290
H       -2.70361668      -0.37527770       0.16081778
H       -2.72814708      -4.28196593      -3.75882460
H       -5.23741145      -2.67520283      -2.97857160
H      -11.21304784      -4.60615029      -1.67805692
H      -12.92646681      -5.33726719      -3.29129934
H       -9.89617084      -5.92097210      -6.27903043
H       -7.49797927      -3.43808385      -6.88889602
H       -6.99201686      -4.06876757      -9.22512643
H       -6.52690664      -6.43334926      -9.80875722
H       -6.53913659      -8.17486911      -8.04216009
H       -7.03365478      -7.56446857      -5.70089680
C       -0.88167606       0.88167606       0.88167606
C       -2.07941219       1.38527099       0.38287881
C       -2.89285039       2.18062853       1.19862512
C       -2.51847306       2.48326054       2.51684059
C       -1.31062981       1.95585676       3.00135865
C       -0.49170319       1.16518523       2.18681933
C       -3.45594834       3.24498287       3.36294535
C       -3.13293304       3.86688030       4.50861228
C       -4.20188484       4.44272143       5.38227837
O       -5.32475637       4.66100363       4.93924242
C       -3.82214493       4.69053597       6.82216219
C       -2.93143390       3.68548104       7.49841610
O       -2.55903406       2.64904565       6.95058323
N       -2.51611002       3.93931758       8.76935713
H       -1.90694663       3.24080997       9.17837261
C       -2.95052411       5.02252273       9.52118306
C       -2.48820892       5.16483286      10.83272206
C       -2.94175112       6.22707043      11.61077459
C       -3.85117691       7.13159224      11.07070061
Br      -4.48146449       8.56596113      12.12902754
C       -4.30302920       6.99004952       9.75554901
C       -3.85192957       5.92706772       8.95420703
C       -4.29631715       5.74996059       7.53400891
C       -5.22268836       6.73460476       6.91467165
C       -4.72636511       7.87620488       6.27255470
C       -5.60603167       8.85807123       5.81044544
C       -6.98143901       8.70634454       5.98727047
C       -7.48279249       7.56910008       6.61838865
C       -6.60759069       6.58611137       7.08206369
H       -2.39739894       1.15727790      -0.63109380
H       -3.83286814       2.55134041       0.79438493
H       -0.99775934       2.12302359       4.02913332
H        0.43485628       0.76376182       2.58917106
H       -4.49502366       3.23831094       3.03560301
H       -2.11589481       3.89815594       4.87713512
H       -1.78413523       4.45577090      11.25734891
H       -2.58561261       6.33766709      12.63175363
H       -5.01134369       7.71807788       9.36675180
H       -3.65635282       8.02062137       6.14798494
H       -5.21945224       9.74731575       5.31914287
H       -7.66403405       9.47376475       5.63121432
H       -8.55460625       7.44841206       6.75314747
H       -7.01069842       5.70765964       7.58066209
C        0.88167606      -0.88167606       0.88167606
C        2.01952476      -0.34825071       1.47978653
C        2.81734520      -1.15496653       2.29979231
C        2.48990965      -2.50032466       2.52833987
C        1.33190867      -3.01366251       1.92227404
C        0.53497140      -2.21183787       1.09689847
C        3.30997958      -3.27854332       3.47535366
C        3.32267115      -4.61832261       3.56743186
C        4.04375429      -5.29084415       4.69228620
O        4.89358726      -4.68993190       5.34148327
C        3.63174157      -6.71206720       4.99103432
C        2.17293797      -7.05983873       4.88255435
O        1.30562229      -6.22583572       4.62720492
N        1.79999213      -8.35528358       5.06950902
H        0.80927898      -8.54367944       4.97317078
C        2.67381831      -9.36118628       5.45922531
C        2.17414688     -10.65112517       5.66049178
C        3.03186862     -11.66288231       6.08484521
C        4.37547206     -11.37385845       6.30413926
Br       5.53986958     -12.74101833       6.89556524
C        4.87187666     -10.08446788       6.09228318
C        4.02174730      -9.05239900       5.65905802
C        4.51700137      -7.66161290       5.40167237
C        5.95876967      -7.34028845       5.57290666
C        6.85811859      -7.50517679       4.51182932
C        8.22777558      -7.32638970       4.72038307
C        8.70537528      -6.98408456       5.98559418
C        7.81534596      -6.81067765       7.04425762
C        6.44641974      -6.98887145       6.84047455
H        2.28966411       0.69338821       1.32730714
H        3.69398541      -0.71408018       2.77052789
H        1.00984465      -4.03612128       2.10395032
H       -0.36001916      -2.63244336       0.64565240
H        3.89922316      -2.69109936       4.17861508
H        2.75179501      -5.24482521       2.89456565
H        1.12471917     -10.87606148       5.49647440
H        2.64453317     -12.66582266       6.24467750
H        5.92814638      -9.89686527       6.27116171
H        6.50440458      -7.79478487       3.52576969
H        8.92565146      -7.46214066       3.89811874
H        9.77198036      -6.85007062       6.14696214
H        8.18641954      -6.54025462       8.02949163
H        5.76313053      -6.85929363       7.67659600
