170
Properties=species:S:1:pos:R:3 pbc="F F F"
C        1.79133379       1.79133379      -1.79133379
C        3.01270607       1.30774327      -2.25137802
C        3.82452222       2.12042298      -3.04907356
C        3.41983591       3.41784334      -3.40524368
C        2.18100317       3.88258601      -2.93431137
C        1.37138891       3.07554470      -2.12774356
C        4.28953034       4.29139306      -4.22490068
C        4.95039930       3.81297188      -5.29975913
C        5.86882637       4.69880387      -6.13425409
H        6.89604990       4.32675208      -6.02473391
C        5.45926663       4.67575637      -7.60702240
C        4.51281596       5.58975802      -8.11522598
C        4.12820224       5.54030553      -9.45305442
Br       2.87219044       6.78637483     -10.11699232
C        4.65609834       4.57404322     -10.30075159
C        5.57463736       3.64312456      -9.80947150
C        5.98003436       3.68389124      -8.46997286
O        6.85162000       2.79780499      -7.89475271
C        7.45933975       1.82516382      -8.73056196
F        8.32128415       1.11940012      -7.95617829
F        6.51407870       0.95044563      -9.15219706
N        5.93319212       6.05372382      -5.58795118
N        6.75147742       7.02312348      -6.02708308
N        6.50558133       8.05315696      -5.22300783
N        5.57016526       7.72676074      -4.25790675
C        5.24067787       6.47874169      -4.48794768
N        4.41758219       5.61902672      -3.85357929
H        3.34694089       0.30648325      -1.99191617
H        4.78480248       1.72850105      -3.37809300
H        1.82564533       4.87656643      -3.19894989
H        0.41839310       3.45810714      -1.77106194
H        4.86003588       2.77589904      -5.60977735
H        4.07383226       6.34926061      -7.47025823
H        4.35025262       4.52701279     -11.34329745
H        5.93344160       2.88854301     -10.50350455
H        8.00813777       2.25595823      -9.57470580
H        3.98649014       5.90182024      -2.97854665
C       -1.79133379      -1.79133379      -1.79133379
C       -1.32055688      -3.02781804      -2.22345244
C       -2.12437522      -3.82918337      -3.04046017
C       -3.40949405      -3.40998902      -3.42343985
C       -3.86582362      -2.16123413      -2.97084281
C       -3.05992126      -1.35296312      -2.16179280
C       -4.25142012      -4.24238750      -4.31201647
C       -4.34481014      -5.57763278      -4.14068739
C       -5.18853789      -6.44640340      -5.06694304
H       -4.51451858      -7.11749586      -5.61552145
C       -6.20624214      -7.26427385      -4.27152941
C       -7.48709904      -6.75048082      -3.98022011
C       -8.39518373      -7.49515660      -3.23122186
Br     -10.11241988      -6.79482429      -2.86831341
C       -8.04263325      -8.74684531      -2.74141459
C       -6.76914811      -9.26137210      -2.99671321
C       -5.84692557      -8.53104962      -3.75592327
O       -4.56998715      -8.94167640      -4.03251416
C       -4.17921974     -10.23563993      -3.60020586
F       -2.91370877     -10.43743584      -4.04571794
F       -4.11912345     -10.25111855      -2.24647938
N       -5.80922224      -5.64483457      -6.12081031
N       -6.50485357      -6.14024605      -7.15658436
N       -6.83678829      -5.07103404      -7.87392380
N       -6.32169132      -3.91307019      -7.32007125
C       -5.67249097      -4.28981091      -6.24506535
N       -4.93823555      -3.61467830      -5.33727434
H       -0.33095165      -3.37579815      -1.93859052
H       -1.72585774      -4.78168504      -3.38385375
H       -4.86032570      -1.80649152      -3.23434443
H       -3.43240895      -0.38808546      -1.82706778
H       -3.81730206      -6.08823414      -3.34017607
H       -7.78518076      -5.76731173      -4.34085859
H       -8.74619592      -9.32622570      -2.14814124
H       -6.53104515     -10.22929509      -2.56514892
H       -4.82335069     -11.03604040      -3.97941071
H       -4.75008673      -2.62817154      -5.48859876
C       -1.79133379       1.79133379       1.79133379
C       -2.87375955       1.23301986       2.46504794
C       -3.68735963       2.04379006       3.26286906
C       -3.42129214       3.41591655       3.40571424
C       -2.32044330       3.95628729       2.72116996
C       -1.51081458       3.14961347       1.91424912
C       -4.29741480       4.28268699       4.22572230
C       -4.75643977       3.87820304       5.42848749
C       -5.68040570       4.75329311       6.26818551
H       -6.65406514       4.25119429       6.34227646
C       -5.10038162       4.97670478       7.66495899
C       -4.23185136       6.05599772       7.92995089
C       -3.68876638       6.23236854       9.20042727
Br      -2.54184570       7.69585033       9.53786155
C       -3.97830609       5.33311886      10.21946820
C       -4.81510449       4.24275050       9.96937844
C       -5.37766906       4.05515463       8.70107479
O       -6.18420471       3.00317415       8.35679885
C       -6.55282947       2.08662336       9.37561270
F       -7.39761252       1.18646177       8.81278826
F       -5.45557311       1.39426396       9.76688432
N       -5.99015433       6.00543513       5.57927765
N       -6.87351328       6.92150069       6.00667001
N       -6.86483648       7.85603828       5.06087137
N       -6.01468340       7.51584135       4.02430801
C       -5.49579538       6.35773904       4.35383282
N       -4.64549034       5.52394952       3.72074833
H       -3.09884468       0.17358492       2.37291071
H       -4.54068464       1.58891978       3.76179211
H       -2.07298687       5.01175006       2.81642473
H       -0.66666778       3.59070120       1.39019321
H       -4.49169234       2.91013683       5.84388310
H       -3.97808756       6.76853218       7.14673135
H       -3.54792511       5.46292869      11.20970906
H       -4.98484584       3.55111565      10.78952768
H       -7.05089852       2.55896766      10.22893561
H       -4.36267284       5.73564143       2.76854276
C        1.79133379      -1.79133379       1.79133379
C        1.30860590      -3.01377160       2.24944986
C        2.11266379      -3.81493809       3.06641687
C        3.40970064      -3.40977807       3.42344421
C        3.87785570      -2.17516030       2.94488456
C        3.07194083      -1.36693742       2.13579892
C        4.25248685      -4.24147349       4.31186375
C        4.32303874      -5.58043258       4.15965900
C        5.16765471      -6.44794971       5.08627990
H        4.49206700      -7.10024647       5.65522242
C        6.16054815      -7.29327763       4.28821963
C        7.44440367      -6.80366949       3.96972681
C        8.32952205      -7.57343531       3.21860483
Br      10.05137659      -6.90511221       2.81906878
C        7.95061143      -8.82682671       2.75345501
C        6.67356210      -9.31782602       3.03584532
C        5.77424890      -8.56203876       3.79761081
O        4.49564471      -8.94878725       4.09974575
C        4.07876954     -10.24298774       3.69330825
F        2.81734028     -10.41857548       4.16094679
F        3.99767305     -10.27800618       2.34104215
N        5.81649046      -5.64016208       6.11821458
N        6.52037006      -6.13047769       7.15083624
N        6.87940367      -5.05576429       7.84657816
N        6.37343078      -3.89853558       7.28286639
C        5.70218380      -4.28147557       6.22370786
N        4.96437072      -3.60895278       5.31686469
H        0.30959683      -3.35078677       1.98495672
H        1.70510991      -4.75590980       3.43037682
H        4.88153483      -1.83178229       3.18784453
H        3.45379113      -0.41306198       1.78070908
H        3.77564563      -6.09492029       3.37514635
H        7.76281586      -5.81985207       4.31068317
H        8.63614467      -9.42584175       2.15857644
H        6.41425651     -10.28839384       2.62283882
H        4.71647127     -11.04735715       4.07497338
H        4.79350266      -2.61749911       5.45585525
C       -0.00445707       0.01189536      -1.78238275
H       -0.66409135       0.67374010      -2.43557963
H        0.65740317      -0.63156657      -2.45157240
C       -0.90989263      -0.90692880      -0.91072765
C        0.90977584       0.90977584      -0.90977584
C       -0.00465871       1.77757030       0.00794375
H       -0.66225468       2.44313916      -0.64384735
H        0.64322798       2.43503045       0.67728295
C       -1.78241447       0.00034974      -0.00472694
H       -2.45427497      -0.65498947       0.64260836
H       -2.43311707       0.67328779      -0.65473579
C       -0.91132561       0.90220522       0.91563759
C       -0.01476271      -0.02253852       1.78660255
H       -0.67934791      -0.69751639       2.42135241
H        0.63392994       0.61504881       2.47327442
C        0.01484550      -1.77751727      -0.01636693
H        0.67870853      -2.42144646      -0.68295456
H       -0.62264859      -2.45592969       0.64226336
C        1.78714474       0.01002794       0.00389507
H        2.44202412       0.67113390       0.66197326
H        2.45385902      -0.65136977      -0.64189061
C        0.91606151      -0.90478549       0.90901405
