182
Properties=species:S:1:pos:R:3 pbc="F F F"
C        1.79163446       1.79163446      -1.79163446
C        3.07303346       2.13496852      -1.36362028
C        3.87862752       2.94275262      -2.16984134
C        3.40298442       3.40748750      -3.40289994
C        2.11397236       3.05626638      -3.82271926
C        1.30789173       2.24781799      -3.01710259
C        4.24850448       4.25956253      -4.24515823
C        5.12520218       3.71400428      -5.10908355
C        6.02045589       4.59626363      -5.97227957
H        7.05106440       4.41575195      -5.64495865
C        5.84570367       4.29814697      -7.45926001
C        4.58788850       4.48222316      -8.07286690
C        4.41632490       4.21498184      -9.42907281
C        5.48389897       3.76393055     -10.19600869
C        6.73568518       3.57595848      -9.60391323
C        6.92788354       3.84383183      -8.24240219
O        8.11162466       3.65767697      -7.58126194
C        9.28537229       3.52589640      -8.36622821
F       10.34128849       3.54861365      -7.51438264
F        9.28997403       2.30220244      -8.95002263
N        5.80283985       6.02359591      -5.69643475
N        6.53114509       7.02812879      -6.23072450
C        5.97361975       8.08332508      -5.62513294
N        4.97005730       7.80292254      -4.73377219
C        4.89387735       6.49758796      -4.78484971
N        4.12297278       5.62499951      -4.10747015
H        3.45252443       1.78220681      -0.40814608
H        4.87672776       3.21089701      -1.82952320
H        1.73092238       3.41123612      -4.77716622
H        0.30883269       1.98208261      -3.35291007
H        5.23146973       2.63781382      -5.20800615
H        3.74185063       4.83804952      -7.48688512
H        5.35313888       3.54565658     -11.25318976
H        7.53271245       3.19571344     -10.23668880
H        9.40894720       4.31958009      -9.11068776
H        6.31114827       9.09104292      -5.83241030
H        3.48251344       5.96726851      -3.39752966
C        3.12391277       4.39637842     -10.03764999
C        2.04151762       4.54829805     -10.54733338
Br       0.29137620       4.79393925     -11.37144831
C       -1.79163446      -1.79163446      -1.79163446
C       -1.30407593      -2.25499271      -3.01255363
C       -2.11153986      -3.06027154      -3.81941008
C       -3.40590626      -3.40142764      -3.40603797
C       -3.88527962      -2.93016282      -2.17751557
C       -3.07794452      -2.12517826      -1.36968952
C       -4.25357073      -4.24260536      -4.25704914
C       -4.18092581      -5.58490160      -4.18246260
C       -5.04604638      -6.46328161      -5.07967110
H       -4.36322702      -6.99935190      -5.74919610
C       -5.90612742      -7.42881266      -4.26817056
C       -6.85937495      -6.92827166      -3.35533196
C       -7.65095517      -7.79915226      -2.61027211
C       -7.51203999      -9.17403448      -2.75776374
C       -6.57267744      -9.68605235      -3.65682711
C       -5.77107333      -8.82531541      -4.41772883
O       -4.80920496      -9.24534137      -5.29601723
C       -4.85819910     -10.59706758      -5.72223023
F       -3.94897036     -10.73545268      -6.71986174
F       -4.43946582     -11.39417925      -4.70855403
N       -5.87737237      -5.65887803      -5.98662010
N       -6.65804126      -6.16678190      -6.96517522
C       -7.13496909      -5.03993247      -7.50717621
N       -6.68512862      -3.86955287      -6.95207054
C       -5.88141324      -4.28723332      -6.00766846
N       -5.10608383      -3.61208343      -5.13727519
H       -0.30231792      -1.99552575      -3.34503365
H       -1.72759033      -3.41636415      -4.77319348
H       -4.88899422      -3.18582324      -1.84450726
H       -3.46077658      -1.76465495      -0.41839384
H       -3.50011324      -6.08043152      -3.49674494
H       -6.98303733      -5.85366081      -3.23008713
H       -8.12151040      -9.85821561      -2.17225922
H       -6.48063705     -10.76682645      -3.71765118
H       -5.84216309     -10.90797963      -6.08907233
H       -7.82829007      -5.06792707      -8.33838435
H       -5.06897642      -2.59811570      -5.18021949
C       -8.61058243      -7.27293352      -1.67442524
C       -9.41427025      -6.83222532      -0.89065348
Br     -10.71376548      -6.11963744       0.37663916
C       -1.79163446       1.79163446       1.79163446
C       -3.15926407       1.53582384       1.87653435
C       -3.96561853       2.34356343       2.68203952
C       -3.40494067       3.40680658       3.40162462
C       -2.02974676       3.65451974       3.30869149
C       -1.22251758       2.84660939       2.50368533
C       -4.25420572       4.25654369       4.24247582
C       -4.52432221       3.90911906       5.51484874
C       -5.42316577       4.77948405       6.38634926
H       -6.32235963       4.18972650       6.59968887
C       -4.72039803       5.21201117       7.67070144
C       -3.54620601       5.99261449       7.60415807
C       -2.89680584       6.39457505       8.76899866
C       -3.39875051       6.03194223      10.01314547
C       -4.55995507       5.25895414      10.09664768
C       -5.22882378       4.84935948       8.93593431
O       -6.35224416       4.06775800       8.93056140
C       -7.07699369       3.95606969      10.14443351
F       -8.23502964       3.30815849       9.86109665
F       -6.38899357       3.15672991      10.99647562
N       -5.92797832       5.94633777       5.64855442
N       -6.83027022       6.82808097       6.13164720
C       -6.97844085       7.63177270       5.07186423
N       -6.25307905       7.29598200       3.95769097
C       -5.61313575       6.22121735       4.34196192
N       -4.77186417       5.40331404       3.68026423
H       -3.60623775       0.71511342       1.32152615
H       -5.03317422       2.14194865       2.74202509
H       -1.58096465       4.47769884       3.86066122
H       -0.15646355       3.04862707       2.43873475
H       -4.12534451       2.99906084       5.95288435
H       -3.14149040       6.28795854       6.63733633
H       -2.89081263       6.33589472      10.92527788
H       -4.89882127       4.97677656      11.08951685
H       -7.31057611       4.92021554      10.60842340
H       -7.64075908       8.48765902       5.10618338
H       -4.57291849       5.57508161       2.69931151
C       -1.69325811       7.18061550       8.68406757
C       -0.68528689       7.83892437       8.61293779
Br       0.94451733       8.90335413       8.49792696
C        1.79163446      -1.79163446       1.79163446
C        1.48951243      -1.93751617       3.14459366
C        2.29721795      -2.74297200       3.95103153
C        3.40667848      -3.40156115       3.40513224
C        3.70068604      -3.24766630       2.04460566
C        2.89286078      -2.44268191       1.23726962
C        4.25609644      -4.24240677       4.25472202
C        3.94746442      -5.53591644       4.46490915
C        4.81683375      -6.40849341       5.36367192
H        4.20317267      -6.67708474       6.23151760
C        5.32301074      -7.64869312       4.63140678
C        6.14283996      -7.50932513       3.49081348
C        6.61202236      -8.63331341       2.81504378
C        6.27867970      -9.90796616       3.25719234
C        5.46757080     -10.06350020       4.38448589
C        4.99021106      -8.94464880       5.07925771
O        4.16851447      -9.01031446       6.17173463
C        4.07649749     -10.25401611       6.84698331
F        3.37652198     -10.03853659       7.98922620
F        3.33560756     -11.10798983       6.09860171
N        5.93573522      -5.64827113       5.93886416
N        6.80163869      -6.13269286       6.85566683
C        7.55869896      -5.05067234       7.07270648
N        7.20765183      -3.92282855       6.37627164
C        6.17225836      -4.32154193       5.68251472
N        5.36112024      -3.65874372       4.83557848
H        0.63262605      -1.43012688       3.58012439
H        2.05921773      -2.85063841       5.00729181
H        4.55998863      -3.75186283       1.60747327
H        3.13102063      -2.33009950       0.18270524
H        3.06979660      -5.99143453       4.01605856
H        6.41593854      -6.51774860       3.13309812
H        6.63526437     -10.78852492       2.72819594
H        5.21100807     -11.07811532       4.67599129
H        5.04835508     -10.69104308       7.09981689
H        8.39054574      -5.07880006       7.76525569
H        5.50277364      -2.66535181       4.67918616
C        7.43765578      -8.47427361       1.64601179
C        8.12912377      -8.34107778       0.66694750
Br       9.24716903      -8.12571138      -0.91611665
C       -0.00445707       0.01189536      -1.78238275
H       -0.66409135       0.67374010      -2.43557963
H        0.65740317      -0.63156657      -2.45157240
C       -0.90989263      -0.90692880      -0.91072765
C        0.90977584       0.90977584      -0.90977584
C       -0.00465871       1.77757030       0.00794375
H       -0.66225468       2.44313916      -0.64384735
H        0.64322798       2.43503045       0.67728295
C       -1.78241447       0.00034974      -0.00472694
H       -2.45427497      -0.65498947       0.64260836
H       -2.43311707       0.67328779      -0.65473579
C       -0.91132561       0.90220522       0.91563759
C       -0.01476271      -0.02253852       1.78660255
H       -0.67934791      -0.69751639       2.42135241
H        0.63392994       0.61504881       2.47327442
C        0.01484550      -1.77751727      -0.01636693
H        0.67870853      -2.42144646      -0.68295456
H       -0.62264859      -2.45592969       0.64226336
C        1.78714474       0.01002794       0.00389507
H        2.44202412       0.67113390       0.66197326
H        2.45385902      -0.65136977      -0.64189061
C        0.91606151      -0.90478549       0.90901405
