174
Properties=species:S:1:pos:R:3 pbc="F F F"
C        1.79174749       1.79174749      -1.79174749
C        2.55620987       1.21104499      -2.80324868
C        3.36134192       2.01508285      -3.61001072
C        3.39909561       3.39520627      -3.40198029
C        2.63131712       3.97859281      -2.38519223
C        1.82401497       3.16977564      -1.57764240
C        2.67490262       5.42880308      -2.17284296
C        3.58190113       5.97035306      -1.33784906
C        3.65980267       7.47987155      -1.14032413
H        4.62687255       7.82368332      -1.52973820
N        2.68459361       8.18398183      -1.98827385
N        2.59727684       9.52591040      -2.10439835
C        1.60028603       9.63212889      -2.99033709
N        1.08058103       8.45041124      -3.45192291
C        1.79267301       7.55336791      -2.81841655
N        1.78246128       6.20833975      -2.87517377
C        3.52419241       7.85373709       0.33492334
C        2.25802816       8.02984364       0.93004974
C        2.14993123       8.39730528       2.27049302
Br       0.44211441       8.65384099       3.03994929
C        3.28984777       8.58882495       3.04299235
C        4.55065947       8.38339304       2.48059818
C        4.67328316       7.98532347       1.14343787
O        5.87582267       7.73501319       0.53757279
C        6.91277269       7.26551883       1.38605728
F        7.83899755       6.67222069       0.59200361
F        7.51851294       8.32730642       1.96835714
H        2.53066000       0.13698560      -2.97130321
H        3.95819461       1.56752101      -4.40119518
H        4.02826463       4.01391917      -4.03851483
H        1.22259759       3.61621377      -0.78916118
H        4.29774169       5.35309891      -0.80442049
H        1.24143721      10.60022112      -3.31582193
H        1.15473433       5.73802324      -3.52046911
H        1.35080191       7.90075115       0.34206333
H        3.20915358       8.90254718       4.08104842
H        5.42063483       8.56820804       3.10550414
H        6.57989669       6.54210035       2.13840998
C       -1.79174749      -1.79174749      -1.79174749
C       -3.17307538      -1.79714071      -1.60028745
C       -3.97985784      -2.60121092      -2.40536673
C       -3.40262371      -3.39622596      -3.39743250
C       -2.01452981      -3.39117267      -3.58939969
C       -1.20749969      -2.58317914      -2.78075418
C       -1.41498745      -4.22776525      -4.63379595
C       -1.03544893      -5.49111395      -4.36354037
C       -0.44678385      -6.38075951      -5.45245498
H       -1.14335750      -7.21135309      -5.62558348
N       -0.41478256      -5.69033687      -6.75172986
N       -0.04654110      -6.26464967      -7.91639481
C       -0.21995129      -5.24166378      -8.76113694
N       -0.69485194      -4.08104727      -8.20701598
C       -0.82576496      -4.39544410      -6.94324841
N       -1.28446412      -3.68740739      -5.89410328
C        0.92403003      -6.92012981      -5.04690638
C        2.09932453      -6.17679481      -5.28035179
C        3.34583971      -6.69311228      -4.92947092
Br       4.91026776      -5.68978885      -5.27648501
C        3.44816608      -7.94671180      -4.33713465
C        2.29277664      -8.68104974      -4.06518123
C        1.03201447      -8.16190557      -4.38527765
O       -0.14271685      -8.81312583      -4.11742039
C       -0.13264487      -9.67233479      -2.98725459
F       -1.42515317      -9.86897996      -2.62508150
F        0.35835332     -10.87881589      -3.35699965
H       -3.62919176      -1.17959733      -0.83015972
H       -5.05768802      -2.60792084      -2.26130193
H       -4.04096449      -4.01780135      -4.02193279
H       -0.12987662      -2.57138966      -2.92670625
H       -1.16169879      -5.91930811      -3.37425419
H        0.00147724      -5.34301606      -9.81594145
H       -1.63101807      -2.74365008      -6.03855853
H        2.04670152      -5.19926657      -5.75692469
H        4.42101897      -8.36376704      -4.08790427
H        2.41129579      -9.66837883      -3.62625569
H        0.41595278      -9.27182421      -2.12771564
C       -1.79174749       1.79174749       1.79174749
C       -1.56563332       1.83780312       3.16706710
C       -2.36948336       2.64331569       3.97363644
C       -3.39550820       3.39848389       3.40229008
C       -3.62301431       3.35172999       2.02035786
C       -2.81477178       2.54326363       1.21339761
C       -4.70163844       4.14816034       1.42674988
C       -5.94242432       3.63848560       1.30919333
C       -7.07873488       4.47251778       0.72874569
H       -7.81749365       4.63941301       1.52338741
N       -6.62980776       5.83339763       0.39364390
N       -7.43971126       6.82397986      -0.03610553
C       -6.56009665       7.82431695      -0.16166159
N       -5.26637916       7.53152703       0.18500899
C       -5.34042532       6.27616212       0.54787003
N       -4.40663433       5.43277136       1.02656911
C       -7.73356753       3.76765962      -0.45822098
C       -7.21758704       3.90368477      -1.76344976
C       -7.84127653       3.27646243      -2.84099546
Br      -7.14706242       3.49489370      -4.58595001
C       -8.97817203       2.50101871      -2.64351038
C       -9.48173819       2.32537872      -1.35366258
C       -8.84803603       2.92540122      -0.25826850
O       -9.26846654       2.76899946       1.03579707
C       -9.91661291       1.54157530       1.33404603
F       -9.86091103       1.37861378       2.67968983
F      -11.22620020       1.64526582       1.00599620
H       -0.76761461       1.25298641       3.61834779
H       -2.19638973       2.68408741       5.04643365
H       -4.01516266       4.02574527       4.03979070
H       -2.98320193       2.50509886       0.13967175
H       -6.17449758       2.63356295       1.64720055
H       -6.86913059       8.80074031      -0.51239063
H       -3.46094272       5.76816883       1.18411512
H       -6.33745818       4.51808110      -1.94604954
H       -9.48283618       2.03347039      -3.48565423
H      -10.38728091       1.73513777      -1.23907995
H       -9.45983943       0.66846841       0.85527922
C        1.79174749      -1.79174749       1.79174749
C        3.13958224      -1.95676431       1.47415699
C        3.94644215      -2.76101918       2.27897416
C        3.40268589      -3.39677073       3.39682555
C        2.04817088      -3.23134850       3.71558279
C        1.24106450      -2.42351459       2.90685392
C        1.48382714      -3.90111607       4.89160545
C        0.96264211      -5.13844359       4.78901756
C        0.40870612      -5.85772689       6.01356533
H        1.03905222      -6.73573356       6.20550829
N        0.57469072      -5.04978297       7.23237561
N        0.27617242      -5.47236488       8.47904829
C        0.62985140      -4.39845614       9.19444446
N        1.15125693      -3.34937084       8.48228741
C        1.12186519      -3.79177143       7.25082085
N        1.53427499      -3.23529677       6.09640303
C       -1.04071794      -6.28884816       5.79487594
C       -2.11153044      -5.41026268       6.05908983
C       -3.43009581      -5.82623207       5.88060724
Br      -4.85043195      -4.63963586       6.26680219
C       -3.70891363      -7.11234319       5.43225080
C       -2.66093166      -7.98355734       5.13082864
C       -1.33115526      -7.56911617       5.27720785
O       -0.25586332      -8.35961989       4.96950650
C       -0.46185343      -9.31466511       3.93942256
F        0.76269089      -9.67585158       3.48067216
F       -1.02240398     -10.42467532       4.47519088
H        3.56966851      -1.46368214       0.60559815
H        4.99845259      -2.89176112       2.03669708
H        4.04116528      -4.01979574       4.01973761
H        0.18992565      -2.28758776       3.15045913
H        0.94623227      -5.66752423       3.84150459
H        0.50945562      -4.37794111      10.27008354
H        1.98013641      -2.32279504       6.11029524
H       -1.91951340      -4.40322623       6.42577691
H       -4.73678167      -7.44865434       5.31877966
H       -2.91525463      -8.99002957       4.80856378
H       -1.05616372      -8.94165853       3.09809226
C       -0.00445707       0.01189536      -1.78238275
H       -0.66409135       0.67374010      -2.43557963
H        0.65740317      -0.63156657      -2.45157240
C       -0.90989263      -0.90692880      -0.91072765
C        0.90977584       0.90977584      -0.90977584
C       -0.00465871       1.77757030       0.00794375
H       -0.66225468       2.44313916      -0.64384735
H        0.64322798       2.43503045       0.67728295
C       -1.78241447       0.00034974      -0.00472694
H       -2.45427497      -0.65498947       0.64260836
H       -2.43311707       0.67328779      -0.65473579
C       -0.91132561       0.90220522       0.91563759
C       -0.01476271      -0.02253852       1.78660255
H       -0.67934791      -0.69751639       2.42135241
H        0.63392994       0.61504881       2.47327442
C        0.01484550      -1.77751727      -0.01636693
H        0.67870853      -2.42144646      -0.68295456
H       -0.62264859      -2.45592969       0.64226336
C        1.78714474       0.01002794       0.00389507
H        2.44202412       0.67113390       0.66197326
H        2.45385902      -0.65136977      -0.64189061
C        0.91606151      -0.90478549       0.90901405
