198
Properties=species:S:1:pos:R:3 pbc="F F F"
C        1.77705167       1.77705167      -1.77705167
C        2.01644074       3.11666861      -1.57481165
C        2.85137345       3.53464376      -2.63862385
C        3.08523972       2.41750046      -3.42168855
O        2.43816213       1.33602465      -2.88120468
C        3.87047384       2.25556564      -4.63498589
O        4.27233040       3.21920625      -5.27312086
N        4.14023482       0.92779415      -4.91884795
C        4.92996204       0.42023198      -5.96603534
C        5.33739733       1.17247127      -7.06754938
C        6.13027609       0.59403335      -8.06549761
C        6.53432130      -0.73877254      -7.97333188
C        6.15683967      -1.48593889      -6.85786172
C        5.33263505      -0.91808322      -5.87732873
O        7.33906814      -1.17486495      -9.00190700
C        7.53079873      -2.51868345      -9.20201631
C        6.48366271      -3.43173407      -9.32241792
C        6.76125531      -4.78687443      -9.53301076
C        8.08457166      -5.23475297      -9.63960449
C        9.11993102      -4.29811658      -9.59422194
C        8.84380225      -2.94452946      -9.38282013
N        8.29846024      -6.62146016      -9.78452561
C        9.48373041      -7.30278741      -9.59093842
O       10.55014523      -6.79377928      -9.26341076
C        9.35211286      -8.74071392      -9.74320129
C       10.18603778      -9.76787829      -9.34610713
C        9.57575442     -10.97433057      -9.76428836
C        8.41277350     -10.61229362     -10.40482719
Br       7.21918329     -11.79918633     -11.20786544
O        8.25095725      -9.26087896     -10.37547524
H        1.63359744       3.72354662      -0.76656089
H        3.25266768       4.52081962      -2.82270803
H        3.81003139       0.26634843      -4.22545079
H        5.04438111       2.21090467      -7.19099060
H        6.43916726       1.19578158      -8.91750877
H        6.49672321      -2.50852803      -6.72030984
H        5.04433515      -1.52911975      -5.02544016
H        5.45125056      -3.10034990      -9.23759642
H        5.93103048      -5.48586306      -9.58232982
H       10.15801873      -4.58734131      -9.73460160
H        9.65935894      -2.22705882      -9.35339843
H        7.47934739      -7.20392641      -9.92735476
H       11.11805749      -9.64367674      -8.81241450
H        9.94761756     -11.97954370      -9.62358192
C       -1.77705167      -1.77705167      -1.77705167
C       -1.62698036      -3.13403760      -1.94690305
C       -2.62841624      -3.53124525      -2.86497958
C       -3.34263777      -2.39118139      -3.19060957
O       -2.82849734      -1.31847632      -2.50841780
C       -4.47786689      -2.20325462      -4.07990386
O       -4.82280202      -3.06927762      -4.87257787
N       -5.12035489      -0.99488364      -3.87163839
C       -6.28837579      -0.52755164      -4.50030193
C       -6.82964283      -1.09326293      -5.65451221
C       -8.00178233      -0.57282006      -6.21520466
C       -8.65382336       0.51221050      -5.62726778
C       -8.13475064       1.06081298      -4.45482484
C       -6.94148368       0.56378471      -3.91418159
O       -9.81350874       0.90465121      -6.25725266
C      -10.36191401       2.13250846      -5.98472604
C       -9.64273208       3.32508904      -6.05670351
C      -10.27624045       4.53942440      -5.77057559
C      -11.63400353       4.57074007      -5.42615972
C      -12.35993319       3.37730389      -5.43340708
C      -11.72788580       2.16376602      -5.71797315
N      -12.19579218       5.81865587      -5.08438939
C      -13.38767251       6.03870718      -4.42291609
O      -14.15415989       5.16545895      -4.03107577
C      -13.64454953       7.44180358      -4.15185428
C      -14.52925653       8.04220656      -3.27721665
C      -14.37257682       9.44005237      -3.43318776
C      -13.41228585       9.61099383      -4.40401505
Br     -12.83086908      11.25882539      -5.05581871
O      -12.94223344       8.40630547      -4.82962556
H       -0.88514576      -3.76302813      -1.47553106
H       -2.82807074      -4.52260508      -3.24551951
H       -4.75489885      -0.44262226      -3.10430950
H       -6.35760240      -1.93343737      -6.15523660
H       -8.41008301      -1.02683984      -7.11553477
H       -8.64206910       1.86869973      -3.93513565
H       -6.55437293       1.02007865      -3.00636128
H       -8.58709474       3.31692717      -6.31832952
H       -9.68610407       5.45131258      -5.79270575
H      -13.42816565       3.35761039      -5.23472376
H      -12.30633422       1.24391181      -5.72327614
H      -11.61778732       6.64111576      -5.22610418
H      -15.19703353       7.51798910      -2.60775082
H      -14.90444305      10.22133993      -2.90855266
C       -1.77705167       1.77705167       1.77705167
C       -1.97752375       3.12702504       1.60337222
C       -2.82878589       3.53953410       2.65632107
C       -3.11061723       2.40950073       3.40431077
O       -2.47716329       1.32563403       2.85259413
C       -3.93058469       2.23745076       4.59298992
O       -4.32443769       3.19480925       5.24541057
N       -4.24073549       0.91035533       4.83578610
C       -5.06958407       0.39717821       5.84946708
C       -5.48621794       1.13180463       6.95939540
C       -6.31872642       0.54911215       7.92196847
C       -6.75353711      -0.77014164       7.78548518
C       -6.36635182      -1.49857891       6.66098959
C       -5.50325038      -0.92770329       5.71633346
O       -7.59512656      -1.21104271       8.78202634
C       -7.82554687      -2.55408171       8.94266643
C       -6.80505710      -3.49647229       9.06576175
C       -7.12183720      -4.84888187       9.23443631
C       -8.45826229      -5.26513320       9.29629409
C       -9.46832001      -4.30135436       9.24907073
C       -9.15302094      -2.95043914       9.07951113
N       -8.71048258      -6.64908101       9.40012413
C       -9.90708498      -7.29465716       9.15945360
O      -10.95164155      -6.75036355       8.81849871
C       -9.81549378      -8.73885480       9.27796124
C      -10.66441240      -9.73397583       8.83383005
C      -10.09549819     -10.96581295       9.23602697
C       -8.94065746     -10.64994724       9.91459686
Br      -7.79821305     -11.88687135      10.71652070
O       -8.74433037      -9.30282663       9.92404979
H       -1.55894918       3.74392423       0.82083154
H       -3.20984312       4.53077546       2.85557674
H       -3.90949747       0.25822315       4.13410999
H       -5.17054422       2.15894545       7.11678670
H       -6.63423809       1.13706339       8.78115613
H       -6.72810302      -2.50832761       6.48872961
H       -5.20855259      -1.52441070       4.85651367
H       -5.76282718      -3.18970951       9.01537942
H       -6.31092854      -5.56999272       9.28656142
H      -10.51659336      -4.56723106       9.35591672
H       -9.94931919      -2.21173370       9.04811307
H       -7.91016239      -7.25580195       9.54841530
H      -11.57900361      -9.57252919       8.28032082
H      -10.48869194     -11.95729592       9.06025976
C        1.77705167      -1.77705167       1.77705167
C        1.49395994      -3.07339073       2.14057033
C        2.55464741      -3.48969329       2.98030037
C        3.43320202      -2.42366333       3.06756338
O        2.96184161      -1.37918756       2.31436229
C        4.68982613      -2.28492023       3.78627901
O        5.03320368      -3.09078463       4.64066920
N        5.43533084      -1.20425442       3.34729166
C        6.72236212      -0.82507465       3.76879259
C        7.34158031      -1.31915311       4.91668455
C        8.62988069      -0.89613339       5.26379296
C        9.32040699       0.01771719       4.46619085
C        8.71864557       0.48990821       3.30002514
C        7.41491114       0.09505412       2.97202354
O       10.59070083       0.32442367       4.89983302
C       11.23738206       1.42920347       4.40595299
C       10.67751453       2.70638502       4.40321704
C       11.40460958       3.78505477       3.88783683
C       12.69948185       3.59687776       3.38681909
C       13.27633534       2.32717410       3.46687514
C       12.55056536       1.24891529       3.98044286
N       13.35254279       4.71159051       2.82057341
C       14.46426237       4.69421995       2.00183899
O       15.06565880       3.68798217       1.64210008
C       14.84451691       6.01010827       1.52019158
C       15.66996130       6.38287857       0.47718388
C       15.69877335       7.79775036       0.46468922
C       14.90126621       8.20546316       1.50950403
Br      14.60636826       9.98005344       2.00154759
O       14.35458973       7.13095928       2.14192308
H        0.62842202      -3.64960436       1.84567857
H        2.68611183      -4.44770313       3.46238037
H        5.03861893      -0.70161684       2.56159483
H        6.84522098      -2.02582291       5.57523249
H        9.09772162      -1.29224498       6.16249101
H        9.24348074       1.15793824       2.62296252
H        6.96720739       0.48974070       2.06318887
H        9.67184439       2.86790791       4.78456061
H       10.93257915       4.76310864       3.85802674
H       14.29946301       2.14388607       3.14970208
H       13.01377973       0.26774899       4.03966781
H       12.89782193       5.61391022       2.91886403
H       16.17816317       5.70097716      -0.19039076
H       16.24403023       8.43578461      -0.21658984
C       -0.00445707       0.01189536      -1.78238275
H       -0.66409135       0.67374010      -2.43557963
H        0.65740317      -0.63156657      -2.45157240
C       -0.90989263      -0.90692880      -0.91072765
C        0.90977584       0.90977584      -0.90977584
C       -0.00465871       1.77757030       0.00794375
H       -0.66225468       2.44313916      -0.64384735
H        0.64322798       2.43503045       0.67728295
C       -1.78241447       0.00034974      -0.00472694
H       -2.45427497      -0.65498947       0.64260836
H       -2.43311707       0.67328779      -0.65473579
C       -0.91132561       0.90220522       0.91563759
C       -0.01476271      -0.02253852       1.78660255
H       -0.67934791      -0.69751639       2.42135241
H        0.63392994       0.61504881       2.47327442
C        0.01484550      -1.77751727      -0.01636693
H        0.67870853      -2.42144646      -0.68295456
H       -0.62264859      -2.45592969       0.64226336
C        1.78714474       0.01002794       0.00389507
H        2.44202412       0.67113390       0.66197326
H        2.45385902      -0.65136977      -0.64189061
C        0.91606151      -0.90478549       0.90901405
