194
Properties=species:S:1:pos:R:3 pbc="F F F"
C        1.79153029       1.79153029      -1.79153029
C        2.05578958       3.10512086      -1.41306421
C        2.87045849       3.90901435      -2.21743139
C        3.41709917       3.41164044      -3.40824108
C        3.13604177       2.08618188      -3.77397990
C        2.32933132       1.27642178      -2.96773768
C        4.27400700       4.25250487      -4.23964789
C        5.38517444       3.73996993      -4.92600011
N        5.98586170       4.78404470      -5.55615396
C        7.09758979       5.08155885      -6.31514369
C        7.07999909       6.42567713      -6.51492429
C        8.05997694       7.21173992      -7.27043883
C        9.42325732       6.87987725      -7.24410552
C       10.35681625       7.62334393      -7.97362747
C        9.93252303       8.71130539      -8.73202138
Br      11.19351471       9.72100712      -9.71322916
C        8.58493015       9.05735837      -8.77369139
C        7.65429389       8.30470776      -8.05087360
N        5.90475935       6.96651338      -5.91140908
C        5.76720212       8.24929659      -5.22916980
C        4.33553414       8.81062220      -5.29740451
C        3.13256636       7.85934792      -5.11340053
C        3.27130929       6.74294542      -4.06295189
C        4.21669478       5.67595693      -4.49697583
C        5.28268293       5.91478272      -5.30889404
H        1.64128380       3.51226110      -0.49472763
H        3.08400706       4.92308542      -1.89086729
H        3.53678965       1.66960694      -4.69516453
H        2.12941488       0.25145109      -3.26852205
H        5.80004809       2.74364940      -4.98016050
H        7.80302404       4.33347643      -6.62846592
H        9.77568158       6.03964024      -6.65021740
H       11.40691066       7.34472423      -7.94092425
H        8.24575037       9.90230081      -9.36646635
H        6.60093965       8.57182133      -8.10959788
H        6.06507646       8.14090300      -4.17690497
H        6.44697635       8.99763225      -5.65051937
H        4.26079888       9.60827275      -4.54681850
H        4.20813674       9.30819110      -6.26815651
H        2.89408884       7.40926174      -6.08704685
H        2.26245811       8.47523323      -4.85151471
H        2.28030718       6.30204506      -3.90480032
H        3.60016746       7.16718306      -3.10753217
C       -1.79153029      -1.79153029      -1.79153029
C       -3.00878669      -2.26046262      -1.30472534
C       -3.81927753      -3.06111470      -2.11651200
C       -3.41619015      -3.40743279      -3.41335775
C       -2.18426045      -2.92766256      -3.88428055
C       -1.37524476      -2.11937053      -3.07887550
C       -4.27024941      -4.23630667      -4.25960367
C       -4.37772741      -4.03018521      -5.64323185
N       -5.28120808      -4.92958085      -6.11527144
C       -5.93598841      -5.28225580      -7.27604812
C       -6.80622336      -6.27148481      -6.94289235
C       -7.72397708      -6.97167009      -7.84650851
C       -8.35333123      -6.29273466      -8.90117421
C       -9.22058338      -6.96329709      -9.76990718
C       -9.46994686      -8.32070186      -9.58520108
Br     -10.64662311      -9.22693695     -10.75419094
C       -8.85534115      -9.01413898      -8.54649977
C       -7.98122228      -8.34157605      -7.68707692
N       -6.65104738      -6.57500321      -5.55663122
C       -7.69550261      -6.94380120      -4.60636469
C       -7.17113912      -7.81880476      -3.45361696
C       -5.80750684      -7.49193904      -2.80586893
C       -5.45600310      -6.00556646      -2.61563704
C       -5.15241770      -5.32901416      -3.90819568
C       -5.71959119      -5.69738982      -5.08937868
H       -3.34068287      -2.00582149      -0.30176816
H       -4.77637537      -3.39570945      -1.72587495
H       -1.83614409      -3.18296230      -4.88245473
H       -0.42756222      -1.75524649      -3.46657931
H       -3.91745205      -3.30616917      -6.30023676
H       -5.74685627      -4.80013580      -8.21797432
H       -8.17896886      -5.23043154      -9.05613882
H       -9.69326596      -6.41716328     -10.58212990
H       -9.04169226     -10.07421235      -8.39861292
H       -7.48975097      -8.89992274      -6.89268514
H       -8.15495862      -6.03521368      -4.19271213
H       -8.50935681      -7.48437376      -5.10139740
H       -7.93565263      -7.81447295      -2.66576455
H       -7.11994547      -8.85731661      -3.80722227
H       -5.01766352      -7.97531471      -3.39741921
H       -5.78315314      -7.98209229      -1.82396061
H       -4.57645599      -5.94651990      -1.96417667
H       -6.27823127      -5.48884792      -2.10780350
C       -1.79153029       1.79153029       1.79153029
C       -2.38412848       1.25727078       2.93257538
C       -3.18474205       2.06830708       3.74385510
C       -3.40767842       3.41271113       3.41659114
C       -2.80430677       3.93138474       2.26051205
C       -1.99575731       3.12601511       1.45171837
C       -4.23723539       4.25709564       4.27182873
C       -3.94316511       5.61021866       4.49776070
N       -4.87288194       6.08425138       5.36892704
C       -5.19163338       7.21950034       6.08315861
C       -6.26473969       6.90175647       6.85410436
C       -6.96707859       7.78900782       7.78606927
C       -6.26525418       8.74254545       8.53944048
C       -6.93676198       9.59640795       9.42061772
C       -8.31873916       9.49774518       9.55936546
Br      -9.22695689      10.64634056      10.75445354
C       -9.03498119       8.56014682       8.82085190
C       -8.36031085       7.71587583       7.93368857
N       -6.65226797       5.55672395       6.57368989
C       -7.16475673       4.56604455       7.51486722
C       -8.07642483       3.52239046       6.84474556
C       -7.69375241       2.94916480       5.46239761
C       -6.20210869       2.67231780       5.20278011
C       -5.41545165       3.92817806       5.04599782
C       -5.74176706       5.09106335       5.67352927
H       -2.22636119       0.21711445       3.20479690
H       -3.61730716       1.63782189       4.64283071
H       -2.96183941       4.96797248       1.97174922
H       -1.53473790       3.55069015       0.56395998
H       -3.14209141       6.24133353       4.14043304
H       -4.63164416       8.13325296       6.00006927
H       -5.18456028       8.82865711       8.45232184
H       -6.37221838      10.32983381       9.99050695
H      -10.11386609       8.48006471       8.92058673
H       -8.93433019       7.00242813       7.34560053
H       -6.32478492       4.05367598       8.00442353
H       -7.72917760       5.04212810       8.32382227
H       -8.18521504       2.68472352       7.54595158
H       -9.08069455       3.95617808       6.74761172
H       -8.07332224       3.62955402       4.68752117
H       -8.24840817       2.01124315       5.32955473
H       -6.12266646       2.08164047       4.28284563
H       -5.78594169       2.07040484       6.01853615
C        1.79153029      -1.79153029       1.79153029
C        1.66313110      -1.73410368       3.17673986
C        2.46559122      -2.54845283       3.98286018
C        3.40741727      -3.41615705       3.41340637
C        3.52398687      -3.45679411       2.01542257
C        2.71707261      -2.65071852       1.20569965
C        4.23638203      -4.27041024       4.25936748
C        4.59128320      -5.57508943       3.88477185
N        5.31533057      -6.10438347       4.90634633
C        5.91357502      -7.28319990       5.29751741
C        6.39675593      -7.07354721       6.55029738
C        7.11947858      -8.03939484       7.38328226
C        6.78410236      -9.40189141       7.36124633
C        7.48085325     -10.32502875       8.14790565
C        8.51717623      -9.88921578       8.96945779
Br       9.45545607     -11.13427433      10.03802060
C        8.86758194      -8.54259392       9.00580405
C        8.17479215      -7.62531170       8.20977140
N        6.13874924      -5.72009781       6.92383476
C        5.78227391      -5.21684703       8.24654757
C        6.21908734      -3.75740229       8.46707122
C        6.04919687      -2.72874930       7.32736864
C        4.77618803      -2.83255574       6.46846283
C        4.79882818      -4.02102075       5.56977861
C        5.44336766      -5.17751743       5.88547460
H        0.94062366      -1.06759075       3.64005811
H        2.33174675      -2.50591897       5.06029406
H        4.24961982      -4.11235113       1.53959017
H        2.82141963      -2.70273562       0.12523277
H        4.35704000      -6.15997090       3.00684708
H        5.93064897      -8.15932885       4.67498857
H        5.97155204      -9.76049214       6.73349505
H        7.20565960     -11.37588747       8.11101207
H        9.67775001      -8.19565651       9.64111101
H        8.47309431      -6.57891516       8.23034939
H        4.69570914      -5.29650632       8.39066897
H        6.22842454      -5.82920839       9.03749504
H        5.68193293      -3.38489242       9.34906478
H        7.28087245      -3.75587290       8.74773899
H        6.93008982      -2.78719291       6.67311471
H        6.08207153      -1.72858028       7.77855424
H        4.70339425      -1.92367260       5.86008572
H        3.89142763      -2.86939644       7.11405861
C       -0.00445707       0.01189536      -1.78238275
H       -0.66409135       0.67374010      -2.43557963
H        0.65740317      -0.63156657      -2.45157240
C       -0.90989263      -0.90692880      -0.91072765
C        0.90977584       0.90977584      -0.90977584
C       -0.00465871       1.77757030       0.00794375
H       -0.66225468       2.44313916      -0.64384735
H        0.64322798       2.43503045       0.67728295
C       -1.78241447       0.00034974      -0.00472694
H       -2.45427497      -0.65498947       0.64260836
H       -2.43311707       0.67328779      -0.65473579
C       -0.91132561       0.90220522       0.91563759
C       -0.01476271      -0.02253852       1.78660255
H       -0.67934791      -0.69751639       2.42135241
H        0.63392994       0.61504881       2.47327442
C        0.01484550      -1.77751727      -0.01636693
H        0.67870853      -2.42144646      -0.68295456
H       -0.62264859      -2.45592969       0.64226336
C        1.78714474       0.01002794       0.00389507
H        2.44202412       0.67113390       0.66197326
H        2.45385902      -0.65136977      -0.64189061
C        0.91606151      -0.90478549       0.90901405
