181
Properties=species:S:1:pos:R:3 pbc="F F F"
C        0.00000000       0.00000000       0.00000000
C        0.88162627       0.88162627      -0.88162627
C        1.14588555       2.19521683      -0.50316018
C        1.96055446       2.99911033      -1.30752736
C        2.50719515       2.50173642      -2.49833706
C        2.22613775       1.17627786      -2.86407588
C        1.41942730       0.36651776      -2.05783365
C        3.36410298       3.34260084      -3.32974386
C        4.47527041       2.83006590      -4.01609608
N        5.07595768       3.87414068      -4.64624994
C        6.18768577       4.17165483      -5.40523966
C        6.17009507       5.51577311      -5.60502027
C        7.15007291       6.30183589      -6.36053480
C        8.51335330       5.96997323      -6.33420150
C        9.44691223       6.71343990      -7.06372345
C        9.02261900       7.80140137      -7.82211736
C        7.67502612       8.14745434      -7.86378737
C        6.74438986       7.39480374      -7.14096958
N        4.99485532       6.05660936      -5.00150505
C        4.85729810       7.33939256      -4.31926577
C        3.42563012       7.90071817      -4.38750048
C        2.22266234       6.94944390      -4.20349651
C        2.36140526       5.83304140      -3.15304787
C        3.30679075       4.76605290      -3.58707181
C        4.37277891       5.00487869      -4.39899001
H        0.73137977       2.60235707       0.41517639
H        2.17410303       4.01318140      -0.98096327
H        2.62688562       0.75970292      -3.78526050
H        1.21951086      -0.65845294      -2.35861803
H        4.89014406       1.83374537      -4.07025647
H        6.89312002       3.42357240      -5.71856189
H        8.86577755       5.12973622      -5.74031338
H       10.49700664       6.43482020      -7.03102023
H        7.33584634       8.99239678      -8.45656233
H        5.69103562       7.66191730      -7.19969385
H        5.15517244       7.23099898      -3.26700094
H        5.53707232       8.08772822      -4.74061535
H        3.35089486       8.69836872      -3.63691448
H        3.29823272       8.39828708      -5.35825248
H        1.98418482       6.49935771      -5.17714283
H        1.35255409       7.56532920      -3.94161069
H        1.37040316       5.39214104      -2.99489629
H        2.69026343       6.25727903      -2.19762814
C        9.98333876       8.57066925      -8.56967637
C       10.78794156       9.21493110      -9.19575705
Br      12.08891623      10.25664802     -10.20807654
C       -0.88162627      -0.88162627      -0.88162627
C       -1.58035440      -1.94590761      -0.31800056
C       -2.39421874      -2.74760305      -1.12537036
C       -2.50757498      -2.49959837      -2.50009528
C       -1.79255587      -1.42427382      -3.04966179
C       -0.98488558      -0.61484424      -2.24404889
C       -3.36548377      -3.33432909      -3.33663483
C       -4.11146264      -2.80799397      -4.40197579
N       -4.83059640      -3.83147495      -4.93427694
C       -5.78942748      -4.08273719      -5.89241559
C       -6.10815250      -5.39932660      -5.78340935
C       -7.08210520      -6.13483337      -6.59550504
C       -8.26883212      -5.52221622      -7.02647968
C       -9.19302259      -6.22062821      -7.81042478
C       -8.93856761      -7.54300661      -8.16456351
C       -7.76718261      -8.16981285      -7.74927237
C       -6.84168840      -7.46407032      -6.97440447
N       -5.29232046      -5.98930213      -4.77134715
C       -5.67246521      -7.02620382      -3.81728740
C       -4.47733878      -7.87992571      -3.35658428
C       -3.12476109      -7.19910982      -3.05173183
C       -3.16745423      -5.82970714      -2.35033316
C       -3.65695817      -4.74987818      -3.25307911
C       -4.54505586      -4.97107275      -4.26051900
H       -1.50616806      -2.15767506       0.74528267
H       -2.94999014      -3.55746362      -0.66079394
H       -1.85060845      -1.20746488      -4.11377571
H       -0.44436743       0.21541275      -2.69072127
H       -4.20710349      -1.80207307      -4.78496935
H       -6.17050789      -3.31897260      -6.54577383
H       -8.49024690      -4.49328294      -6.75229730
H      -10.10333648      -5.72375365      -8.13575693
H       -7.55971486      -9.19996599      -8.02512461
H       -5.91945787      -7.95821915      -6.67496976
H       -6.14808802      -6.56419111      -2.94089322
H       -6.42745439      -7.69732088      -4.24064062
H       -4.79442598      -8.43047062      -2.46128147
H       -4.28828198      -8.64592442      -4.12056587
H       -2.56445258      -7.10404697      -3.99218580
H       -2.54139117      -7.88940042      -2.42870238
H       -2.15111789      -5.58742777      -2.01889484
H       -3.80103416      -5.88618170      -1.45795475
C       -9.89151020      -8.26473986      -8.96743431
C      -10.68959962      -8.86919147      -9.63983861
Br     -11.98004272      -9.84653859     -10.72705949
C       -0.88162627       0.88162627       0.88162627
C       -0.36036847       1.43651594       2.04737816
C       -1.16669122       2.25080007       2.84970086
C       -2.49943308       2.50755998       2.50027556
C       -3.00708748       1.93614707       1.32325693
C       -2.20130077       1.12880726       0.51367068
C       -3.33404572       3.36545806       3.33694390
C       -4.28243641       4.24522252       2.79377347
N       -4.84354002       4.92240989       3.83039838
C       -5.73797466       5.93958889       4.08701670
C       -5.72201894       6.13742681       5.43144270
C       -6.51385720       7.11648985       6.18209657
C       -6.78847944       8.38370620       5.64534240
C       -7.55314582       9.31390720       6.35702256
C       -8.04470424       8.98408110       7.61735239
C       -7.78565915       7.73233259       8.16827609
C       -7.02944957       6.80226006       7.44845355
N       -4.83800461       5.18787595       6.02708918
C       -3.95307070       5.39367378       7.16921195
C       -3.67134497       4.09554072       7.94696307
C       -3.41913135       2.78184539       7.17462600
C       -2.59616061       2.87411026       5.87722366
C       -3.35450977       3.53037181       4.77503389
C       -4.30100825       4.48426831       4.99137106
H        0.66976034       1.24966607       2.33865473
H       -0.73263417       2.69372456       3.74188896
H       -4.03891868       2.10747499       1.02545537
H       -2.61449220       0.70109345      -0.39590971
H       -4.56409386       4.45767113       1.77238091
H       -6.28621248       6.43969279       3.30934904
H       -6.40542773       8.66371468       4.66668474
H       -7.75615620      10.28771392       5.91897695
H       -8.16932670       7.46621634       9.14926241
H       -6.85288099       5.81918275       7.88058305
H       -3.00237736       5.82496400       6.82583100
H       -4.37135570       6.12572630       7.86833389
H       -2.80614207       4.28419276       8.59584323
H       -4.51418213       3.91345464       8.62713550
H       -4.39023677       2.31825855       6.95219004
H       -2.91107875       2.08976303       7.85865219
H       -2.32928891       1.85554293       5.57260866
H       -1.66324765       3.41793399       6.06398897
C       -8.82788093       9.94259777       8.35320568
C       -9.48379141      10.74535549       8.96948280
Br     -10.54434317      12.04334682       9.96595080
C        0.88162627      -0.88162627       0.88162627
C        0.73696085      -0.84146145       2.26584028
C        1.53951533      -1.65585083       3.07182600
C        2.49754541      -2.50632023       2.50340298
C        2.63033530      -2.52968537       1.10647082
C        1.82346229      -1.72357763       0.29673879
C        3.32660697      -3.36076411       3.34907660
C        3.70057546      -4.65699715       2.96385979
N        4.41904400      -5.18971117       3.98759312
C        5.02624918      -6.36609006       4.37224103
C        5.49284218      -6.16530803       5.63273824
C        6.21709504      -7.13238249       6.46296607
C        5.89755727      -8.49823582       6.42173494
C        6.59587701      -9.42236991       7.20582866
C        7.61782527      -8.98429584       8.04401662
C        7.95241028      -7.63430891       8.09954864
C        7.25822369      -6.71587755       7.30606194
N        5.21521114      -4.81920585       6.01855275
C        4.83811696      -4.33513422       7.34270524
C        5.25573339      -2.87346565       7.58464973
C        5.08698519      -1.83385726       6.45476030
C        3.82501461      -1.94221154       5.58026838
C        3.87135142      -3.12001374       4.66855031
C        4.52544245      -4.27269226       4.97851290
H        0.00171422      -0.18847209       2.72837415
H        1.39304749      -1.62712642       4.14807379
H        3.36872320      -3.17154217       0.63158367
H        1.94057890      -1.76208223      -0.78298517
H        3.48294065      -5.23442847       2.07677679
H        5.06034110      -7.23481027       3.74010295
H        5.09628545      -8.85879440       5.78074730
H        6.33312577     -10.47577700       7.15394429
H        8.75134801      -7.28552524       8.74793221
H        7.54431546      -5.66648518       7.34184615
H        3.75097510      -4.42868602       7.47351123
H        5.28227424      -4.95140846       8.13173319
H        4.70444726      -2.51712768       8.46460312
H        6.31419794      -2.86316029       7.87741405
H        5.97581267      -1.87489006       5.80998262
H        5.10335312      -0.83859434       6.91754652
H        3.74872298      -1.02732480       4.98139272
H        2.93350509      -1.99639560       6.21526992
C        8.33422562      -9.93397902       8.85547975
C        8.93421090     -10.72933868       9.53508012
Br       9.90433637     -12.01536799      10.63393643
