145
Properties=species:S:1:pos:R:3 pbc="F F F"
C        0.00000000       0.00000000       0.00000000
C        0.88142441       0.88142441      -0.88142441
C        0.43433634       2.14353031      -1.26295550
C        1.24121292       2.95231079      -2.06993258
C        2.49923342       2.50485591      -2.50465978
C        2.93595208       1.23455936      -2.09869969
C        2.13004797       0.42275902      -1.29386936
C        3.36802065       3.33761005      -3.33227093
C        2.92618535       4.35931596      -4.14838762
S        4.25843540       5.12879323      -4.89677673
C        5.33734134       4.06670885      -4.07984242
N        4.73934050       3.13269450      -3.36465604
N        6.71900132       4.17302089      -4.29256636
C        7.30224719       5.41728567      -4.54555177
O        6.78641868       6.51359786      -4.31689578
C        8.67804955       5.38982274      -5.18243571
C        7.48018864       3.00879120      -3.96479629
C        8.60086518       3.09032292      -3.12408063
C        9.36481266       1.95377969      -2.84055599
C        9.01616338       0.72782613      -3.40174270
C        7.90220251       0.62337253      -4.23006200
C        7.13259194       1.75794704      -4.50266050
H       -0.53388969       2.51217168      -0.93338666
H        0.87651003       3.94220057      -2.33184668
H        3.91481574       0.86962226      -2.40672157
H        2.48899917      -0.55762141      -0.99294187
H        1.91906539       4.69553194      -4.34172718
H        8.82136899       4.49852294      -5.79893092
H        9.45187173       5.45332510      -4.41443565
H        8.77501329       6.25734940      -5.84342743
H        8.87011313       4.02753167      -2.64244790
H       10.22142498       2.03571137      -2.17616859
H        7.62373648      -0.33046902      -4.67033037
H        6.27115692       1.65852140      -5.16002560
C        9.81074587      -0.43973613      -3.12060741
C       10.47620871      -1.41756951      -2.88515660
Br      11.55220583      -2.99864339      -2.50445255
C       -0.88142441      -0.88142441      -0.88142441
C       -0.65549057      -2.25432670      -0.93100487
C       -1.46275766      -3.06305429      -1.73764435
C       -2.49948762      -2.50579927      -2.50346223
C       -2.71798316      -1.12160736      -2.42962060
C       -1.91062696      -0.31026772      -1.62578166
C       -3.36776743      -3.33113580      -3.33899841
C       -3.01918379      -4.56527305      -3.84943209
S       -4.33312706      -5.23159810      -4.71928020
C       -5.28536168      -3.84683248      -4.35169844
N       -4.63587184      -2.90083564      -3.69998355
N       -6.59850964      -3.75243662      -4.83364231
C       -7.38133142      -4.90006379      -4.98368941
O       -7.16074726      -5.99490375      -4.46126131
C       -8.58583664      -4.76907161      -5.89539974
C       -7.13782071      -2.43005878      -4.88589665
C       -8.37950337      -2.13177891      -4.30398646
C       -8.91964700      -0.84500565      -4.39449568
C       -8.22348275       0.15161789      -5.07386734
C       -6.98551233      -0.12080204      -5.64932268
C       -6.44141992      -1.40433396      -5.54744561
H        0.13809936      -2.70760154      -0.34216648
H       -1.27860057      -4.13430362      -1.73765309
H       -3.52636520      -0.66540887      -2.99938550
H       -2.09813313       0.75919882      -1.58538531
H       -2.08962476      -5.10629610      -3.76040365
H       -8.42444876      -4.01965102      -6.67472307
H       -9.47761698      -4.52984427      -5.31217122
H       -8.74912445      -5.72737520      -6.39929046
H       -8.92353338      -2.88191558      -3.73464375
H       -9.87677190      -0.63118741      -3.92534563
H       -6.43630881       0.65256834      -6.17985736
H       -5.47714164      -1.60068215      -6.01188012
C       -8.78599576       1.47305435      -5.17867574
C       -9.25710040       2.57975738      -5.26645278
Br     -10.01883675       4.36920259      -5.40838083
C       -0.88142441       0.88142441       0.88142441
C       -2.16562139       0.45986896       1.21533180
C       -2.97391865       1.26618704       2.02335061
C       -2.50659595       2.50124455       2.50090862
C       -1.20490373       2.90167643       2.16263096
C       -0.39545503       2.09849032       1.35273100
C       -3.32424719       3.35257601       3.36107844
C       -4.70347531       3.32396090       3.40645272
S       -5.27364545       4.42585397       4.58450594
C       -3.65421758       4.86058851       4.96908652
N       -2.74408493       4.29018987       4.20241623
N       -3.40406890       5.83025515       5.95026452
C       -4.25511102       5.95901863       7.05095498
O       -5.06701294       5.11447189       7.43542748
C       -4.17332204       7.27203154       7.80495442
C       -2.11893740       6.45170548       5.88313325
C       -1.28708584       6.51670378       7.01147911
C       -0.04811557       7.16226721       6.94876556
C        0.36483289       7.75328021       5.75728489
C       -0.44078488       7.69116973       4.62368243
C       -1.67347889       7.03496459       4.68475600
H       -2.54570229      -0.49513539       0.86110175
H       -3.96273766       0.90024657       2.28757305
H       -0.81064156       3.84664650       2.53387151
H        0.60876165       2.42989185       1.10318943
H       -5.39614341       2.72882435       2.83135674
H       -3.87048157       8.09548574       7.15285553
H       -3.48831488       7.18073472       8.65058287
H       -5.16839986       7.51641749       8.19097276
H       -1.56938657       6.02901630       7.94168984
H        0.58717329       7.18992399       7.83055423
H       -0.12412733       8.14915390       3.69031660
H       -2.29354474       7.00510986       3.79104931
C        1.63460386       8.42973100       5.69649001
C        2.69803704       8.99625854       5.64557430
Br       4.41751856       9.91228565       5.56324790
C        0.88142441      -0.88142441       0.88142441
C        2.16618679      -0.46058180       1.21405356
C        2.97448532      -1.26690009       2.02207089
C        2.50659570      -2.50124881       2.50090461
C        1.20435063      -2.90095803       2.16390246
C        0.39489690      -2.09777225       1.35400719
C        3.32425358      -3.35254840       3.36109965
C        4.70353638      -3.32493330       3.40541925
S        5.27376391      -4.42637070       4.58387076
C        3.65429959      -4.85960284       4.96999017
N        2.74401999      -4.28909654       4.20357450
N        3.40416023      -5.82834638       5.95208195
C        4.25593058      -5.95692325       7.05223079
O        5.06875294      -5.11269764       7.43546173
C        4.17372330      -7.26930928       7.80727541
C        2.11851359      -6.44888323       5.88637932
C        1.28745970      -6.51241260       7.01539643
C        0.04795951      -7.15709382       6.95409502
C       -0.36632469      -7.74868947       5.76336743
C        0.43848932      -7.68803217       4.62911555
C        1.67172000      -7.03270578       4.68877371
H        2.54671732       0.49387171       0.85882304
H        3.96377599      -0.90150319       2.28527810
H        0.80965910      -3.84535389       2.53614657
H       -0.60975455      -2.42860769       1.10546648
H        5.39621878      -2.73074718       2.82935855
H        3.86977728      -8.09302449       7.15602108
H        3.48941887      -7.17686550       8.65334810
H        5.16890688      -7.51415191       8.19273132
H        1.57082297      -6.02424019       7.94502956
H       -0.58668865      -7.18361376       7.83637983
H        0.12078914      -8.14647789       3.69633079
H        2.29113788      -7.00398540       3.79458063
C       -1.63664726      -8.42423350       5.70403092
C       -2.70054242      -8.99000163       5.65433658
Br      -4.42077090      -9.90480084       5.57398505
