133
Properties=species:S:1:pos:R:3 pbc="F F F"
C        0.00000000       0.00000000       0.00000000
C        0.86721244       0.86721244      -0.86721244
C        0.70584416       2.21963722      -1.05896510
C        1.75311439       2.62485782      -1.92368522
C        2.48603684       1.49133713      -2.22076837
O        1.93261961       0.41151536      -1.57820171
C        3.66108367       1.29130620      -3.05175601
O        4.30270376       2.22885784      -3.51762605
N        3.92415353      -0.04738342      -3.26405426
C        4.95799261      -0.63683296      -4.00963735
C        6.02065021       0.05959041      -4.58210907
C        7.01796517      -0.62819984      -5.29368302
C        6.96716991      -2.01915972      -5.44165044
C        5.89180795      -2.70625343      -4.88116198
C        4.90172463      -2.02321925      -4.16792386
N        8.01309929      -2.64872409      -6.14776365
C        8.21995550      -4.01016833      -6.30514063
O        7.50615489      -4.89453413      -5.84228223
C        9.40922321      -4.33453567      -7.07074022
C        9.99098744      -5.55993909      -7.33953945
C       11.12920409      -5.30562338      -8.13934845
C       11.17373544      -3.94179225      -8.31624130
Br      12.46436281      -3.03499399      -9.31220076
O       10.14145802      -3.33929749      -7.66389104
H       -0.06652587       2.84058359      -0.62668141
H        1.95508618       3.61882997      -2.30048861
H        3.25045067      -0.67880525      -2.84238491
H        6.11553185       1.13662000      -4.47866202
H        7.83990969      -0.05289230      -5.71318809
H        5.77982572      -3.78061597      -4.98039638
H        4.08199998      -2.60112688      -3.74793738
H        8.72572907      -2.05255818      -6.55470152
H        9.62305304      -6.51577471      -6.98917297
H       11.82492121      -6.03100433      -8.53798261
C       -0.86721244      -0.86721244      -0.86721244
C       -0.89812288      -2.24212212      -0.84420148
C       -1.86832201      -2.63259731      -1.80073811
C       -2.36423523      -1.47128122      -2.36262589
O       -1.73935641      -0.38898678      -1.79399350
C       -3.36780700      -1.24712392      -3.38921495
O       -4.08047475      -2.15017453      -3.81853837
N       -3.38329206       0.06405224      -3.82158455
C       -4.19858686       0.66324712      -4.79545725
C       -5.27005187       0.03658040      -5.42887821
C       -6.03865594       0.73234315      -6.37713557
C       -5.74773545       2.06194881      -6.70387398
C       -4.66369283       2.67585238      -6.07887606
C       -3.90163147       1.98599297      -5.13079073
N       -6.57387273       2.70829191      -7.64655803
C       -6.53828422       4.04276058      -8.01940416
O       -5.76307911       4.88346195      -7.57428583
C       -7.54494137       4.40082651      -9.00131290
C       -7.88231983       5.63581694      -9.52408493
C       -8.92633850       5.41564047     -10.45223114
C       -9.16241842       4.06008338     -10.44584945
Br     -10.43233209       3.19158249     -11.50081998
O       -8.33797957       3.43353154      -9.56160354
H       -0.30066912      -2.88615840      -0.21391160
H       -2.17224759      -3.63675740      -2.06539978
H       -2.68185748       0.65636436      -3.38853721
H       -5.54810942      -0.98711685      -5.19558760
H       -6.87641825       0.21550579      -6.83929302
H       -4.36991418       3.69527375      -6.30496570
H       -3.06569237       2.50575260      -4.66887072
H       -7.30978086       2.15811432      -8.07620586
H       -7.41856467       6.57580143      -9.25368805
H       -9.43684663       6.15666082     -11.05171368
C       -0.86721244       0.86721244       0.86721244
C       -2.19260142       0.63750708       1.15433798
C       -2.59762804       1.68428699       2.01974240
C       -1.49727913       2.50105613       2.19980708
O       -0.43882706       2.00165407       1.48185557
C       -1.31351944       3.71723101       2.97339543
O       -2.15870983       4.12539402       3.76508379
N       -0.11829067       4.34291998       2.67961372
C        0.41000715       5.53132932       3.20947482
C       -0.14897391       6.24658059       4.26679520
C        0.47053638       7.41648354       4.73750119
C        1.65564805       7.88600093       4.15930775
C        2.19873925       7.17462719       3.09082856
C        1.58594069       6.00701266       2.62535727
N        2.23713779       9.05344624       4.69583039
C        3.45803545       9.61555528       4.35740797
O        4.23593393       9.17086701       3.51896992
C        3.78047863      10.80968662       5.11621976
C        4.93497764      11.57067251       5.13489294
C        4.71191066      12.62990326       6.04493657
C        3.43403316      12.45717371       6.52504394
Br       2.59335149      13.58068138       7.75423968
O        2.86123801      11.34982603       5.97746354
H       -2.79402410      -0.18421206       0.79092708
H       -3.57392741       1.84158812       2.45888923
H        0.42773909       3.88505855       1.95671088
H       -1.05641215       5.91279432       4.76160740
H        0.01351739       7.93943576       5.57428712
H        3.10091920       7.49786263       2.58266270
H        2.04603465       5.48507999       1.78976514
H        1.73797119       9.52089551       5.44494808
H        5.82527975      11.36838403       4.55334700
H        5.39966885      13.42071763       6.31085071
C        0.86721244      -0.86721244       0.86721244
C        2.24065433      -0.81957450       0.92421765
C        2.63107295      -1.78674644       1.88383804
C        1.47155714      -2.37900090       2.34758430
O        0.39047013      -1.81873706       1.71312951
C        1.24825050      -3.42809543       3.32779994
O        2.14594298      -3.85402482       4.04921984
N       -0.05468363      -3.88464971       3.31085830
C       -0.65043158      -4.88440614       4.09682243
C       -0.03179513      -5.52613365       5.16801117
C       -0.72370017      -6.50118213       5.90596640
C       -2.04141200      -6.84675568       5.58431694
C       -2.64690169      -6.21297933       4.50063886
C       -1.96101473      -5.23833329       3.76911068
N       -2.68507344      -7.81640126       6.38081103
C       -4.01146745      -8.21292553       6.31346972
O       -4.84598033      -7.76889512       5.53098821
C       -4.36952804      -9.21986822       7.29508758
C       -5.60051652      -9.77140989       7.59969444
C       -5.38222226     -10.71470293       8.63044849
C       -4.03157797     -10.68787602       8.89188644
Br      -3.16695468     -11.75028107      10.15824318
O       -3.40664052      -9.77704320       8.09564889
H        2.88365182      -0.16653017       0.35055714
H        3.63425964      -2.03858108       2.20156404
H       -0.64201965      -3.44950938       2.60654061
H        0.98209459      -5.27934515       5.46937412
H       -0.21376916      -6.96935322       6.74462143
H       -3.65636323      -6.45219723       4.18377213
H       -2.47389600      -4.77048721       2.93221928
H       -2.14055317      -8.24955985       7.11886572
H       -6.53672587      -9.50967956       7.12349760
H       -6.12115170     -11.33710476       9.11594643
