162
Properties=species:S:1:pos:R:3 pbc="F F F"
C        1.77711646       1.77711646      -1.77711646
C        1.61574818       3.12954124      -1.96886913
C        2.66301841       3.53476185      -2.83358924
C        3.39594086       2.40124116      -3.13067239
O        2.84252364       1.32141939      -2.48810574
C        4.57098769       2.20121022      -3.96166003
O        5.21260779       3.13876186      -4.42753007
N        4.83405756       0.86252061      -4.17395828
C        5.86789663       0.27307106      -4.91954138
C        6.93055423       0.96949443      -5.49201310
C        7.92786919       0.28170418      -6.20358705
C        7.87707394      -1.10925570      -6.35155446
C        6.80171198      -1.79634941      -5.79106600
C        5.81162865      -1.11331522      -5.07782788
N        8.92300331      -1.73882006      -7.05766767
C        9.12985953      -3.10026431      -7.21504465
O        8.41605891      -3.98463010      -6.75218626
C       10.31912723      -3.42463165      -7.98064424
C       10.90089147      -4.65003506      -8.24944348
C       12.03910812      -4.39571936      -9.04925248
C       12.08363946      -3.03188822      -9.22614532
O       11.05136204      -2.42939346      -8.57379507
H        0.84337815       3.75048762      -1.53658543
H        2.86499020       4.52873400      -3.21039264
H        4.16035469       0.23109877      -3.75228894
H        7.02543587       2.04652402      -5.38856604
H        8.74981371       0.85701172      -6.62309212
H        6.68972974      -2.87071194      -5.89030040
H        4.99190401      -1.69122286      -4.65784141
H        9.63563309      -1.14265415      -7.46460554
H       10.53295706      -5.60587069      -7.89907699
H       12.73482524      -5.12110031      -9.44788664
C       13.07991083      -2.33190528      -9.99495429
C       13.91428811      -1.74566957     -10.63883181
Br      15.26340559      -0.79777600     -11.67992729
C       -1.77711646      -1.77711646      -1.77711646
C       -1.72298425      -3.15000713      -1.84116716
C       -2.72748005      -3.54359370      -2.76029575
C       -3.32822261      -2.38479833      -3.21483347
O       -2.73473590      -1.30089146      -2.61642140
C       -4.40778435      -2.16407767      -4.16199593
O       -5.09058930      -3.08357302      -4.60473739
N       -4.53071465      -0.83282648      -4.50699533
C       -5.44209260      -0.22957722      -5.38883925
C       -6.51224296      -0.88457698      -5.99524182
C       -7.38131878      -0.18367728      -6.84816436
C       -7.19334227       1.17932077      -7.10535120
C       -6.11043359       1.82293154      -6.50892651
C       -5.24824408       1.12749959      -5.65539682
N       -8.11636570       1.82693936      -7.95242458
C       -8.18599056       3.18107967      -8.23972899
O       -7.43609021       4.04155392      -7.78907877
C       -9.27386429       3.53227106      -9.13354660
C       -9.71863935       4.77232159      -9.55398212
C      -10.80516376       4.54187025     -10.42934773
C      -10.95764227       3.17600702     -10.49626131
O      -10.04128785       2.55153824      -9.70601403
H       -1.04807098      -3.79114846      -1.29123177
H       -2.98637588      -4.54737973      -3.07036122
H       -3.84000137      -0.22379815      -4.07994289
H       -6.71200930      -1.93636901      -5.81214762
H       -8.21428423      -0.72457100      -7.29106232
H       -5.89428325       2.87104345      -6.68607840
H       -4.41728733       1.67120067      -5.21243589
H       -8.84375400       1.25744571      -8.37127619
H       -9.29627817       5.72216484      -9.25205003
H      -11.39736824       5.28336276     -10.94760609
C      -11.94600576       2.49429841     -11.29125249
C      -12.77376019       1.92336744     -11.95705760
Br     -14.11216908       1.00022035     -13.03360815
C       -1.77711646       1.77711646       1.77711646
C       -3.06257847       1.48321832       2.16836176
C       -3.48203935       2.55867228       2.99065787
C       -2.43088393       3.45460857       3.04236191
O       -1.38888204       2.97604287       2.28712385
C       -2.28161575       4.73012289       3.72211931
O       -3.10033150       5.13654805       4.54202017
N       -1.15325909       5.40947482       3.30780254
C       -0.67467149       6.66272716       3.72311042
C       -1.21244180       7.41138536       4.76823460
C       -0.64556380       8.64800471       5.11959192
C        0.46519776       9.15176609       4.43280437
C        0.98616848       8.40518770       3.37740936
C        0.42615122       7.17163451       3.03065802
N        0.99860400      10.38800756       4.85244736
C        2.15400876      11.00264836       4.39600028
O        2.90523477      10.55235237       3.53649747
C        2.44191252      12.26408324       5.05296911
C        3.54046452      13.09690643       4.94385797
C        3.30416864      14.19945899       5.79735090
C        2.07446515      13.97853060       6.37383111
O        1.54489572      12.80192246       5.93873690
H       -3.62840110       0.60174970       1.90030039
H       -4.43669295       2.68282647       3.48459741
H       -0.62458431       4.93912458       2.58003352
H       -2.06137544       7.05482917       5.34432132
H       -1.08278217       9.19664902       5.95048636
H        1.82973394       8.74998924       2.78906290
H        0.86643771       6.62428379       2.20067648
H        0.51760846      10.87269702       5.60249592
H        4.40346108      12.91271516       4.31690929
H        3.95181992      15.04901538       5.96441610
C        1.42978174      14.86535547       7.30738612
C        0.88985939      15.60807130       8.08923844
Br       0.01685062      16.80897998       9.35342752
C        1.77711646      -1.77711646       1.77711646
C        3.13314007      -1.62817807       1.95284041
C        3.52792282      -2.63939735       2.86404933
C        2.38984095      -3.35656607       3.18144739
O        1.31791423      -2.83041730       2.50371723
C        2.18020769      -4.49844778       4.05520248
O        3.05191696      -4.91265725       4.81432551
N        0.92548473      -5.05152710       3.89352462
C        0.35675388      -6.15692578       4.54682941
C        0.94227069      -6.83652711       5.61326396
C        0.27965606      -7.92079526       6.21270910
C       -0.97546665      -8.33916323       5.75567612
C       -1.54628719      -7.66539306       4.67732271
C       -0.89011531      -6.58253096       4.08372567
N       -1.59514283      -9.41924504       6.41774872
C       -2.87431137      -9.91027040       6.20868085
O       -3.68004540      -9.46805327       5.39560720
C       -3.22146601     -11.02083384       7.07577200
C       -4.42164434     -11.68972214       7.23222208
C       -4.20537534     -12.69653061       8.20148597
C       -2.88608901     -12.58721023       8.57677534
O       -2.28009233     -11.56702795       7.90882803
H        3.76149546      -0.88139775       1.48755799
H        4.52108169      -2.83856017       3.24447497
H        0.35999948      -4.60556030       3.17818263
H        1.90543396      -6.53812990       6.01696208
H        0.76061156      -8.41686059       7.05244540
H       -2.50448631      -7.95462354       4.25918097
H       -1.37411106      -6.08716525       3.24546837
H       -1.07497296      -9.86939479       7.16316264
H       -5.33681925     -11.46222434       6.70075828
H       -4.92477872     -13.41289344       8.57349685
C       -2.22985851     -13.43236657       9.54045178
C       -1.68026547     -14.14018501      10.34753080
Br      -0.79162001     -15.28466756      11.65250932
C       -0.00445707       0.01189536      -1.78238275
H       -0.66409135       0.67374010      -2.43557963
H        0.65740317      -0.63156657      -2.45157240
C       -0.90989263      -0.90692880      -0.91072765
C        0.90977584       0.90977584      -0.90977584
C       -0.00465871       1.77757030       0.00794375
H       -0.66225468       2.44313916      -0.64384735
H        0.64322798       2.43503045       0.67728295
C       -1.78241447       0.00034974      -0.00472694
H       -2.45427497      -0.65498947       0.64260836
H       -2.43311707       0.67328779      -0.65473579
C       -0.91132561       0.90220522       0.91563759
C       -0.01476271      -0.02253852       1.78660255
H       -0.67934791      -0.69751639       2.42135241
H        0.63392994       0.61504881       2.47327442
C        0.01484550      -1.77751727      -0.01636693
H        0.67870853      -2.42144646      -0.68295456
H       -0.62264859      -2.45592969       0.64226336
C        1.78714474       0.01002794       0.00389507
H        2.44202412       0.67113390       0.66197326
H        2.45385902      -0.65136977      -0.64189061
C        0.91606151      -0.90478549       0.90901405
