141
Properties=species:S:1:pos:R:3 pbc="F F F"
C        0.00000000       0.00000000       0.00000000
C        0.86721244       0.86721244      -0.86721244
C        0.70584416       2.21963722      -1.05896510
C        1.75311439       2.62485782      -1.92368522
C        2.48603684       1.49133713      -2.22076837
O        1.93261961       0.41151536      -1.57820171
C        3.66108367       1.29130620      -3.05175601
O        4.30270376       2.22885784      -3.51762605
N        3.92415353      -0.04738342      -3.26405426
C        4.95799261      -0.63683296      -4.00963735
C        6.02065021       0.05959041      -4.58210907
C        7.01796517      -0.62819984      -5.29368302
C        6.96716991      -2.01915972      -5.44165044
C        5.89180795      -2.70625343      -4.88116198
C        4.90172463      -2.02321925      -4.16792386
N        8.01309929      -2.64872409      -6.14776365
C        8.21995550      -4.01016833      -6.30514063
O        7.50615489      -4.89453413      -5.84228223
C        9.40922321      -4.33453567      -7.07074022
C        9.99098744      -5.55993909      -7.33953945
C       11.12920409      -5.30562338      -8.13934845
C       11.17373544      -3.94179225      -8.31624130
O       10.14145802      -3.33929749      -7.66389104
H       -0.06652587       2.84058359      -0.62668141
H        1.95508618       3.61882997      -2.30048861
H        3.25045067      -0.67880525      -2.84238491
H        6.11553185       1.13662000      -4.47866202
H        7.83990969      -0.05289230      -5.71318809
H        5.77982572      -3.78061597      -4.98039638
H        4.08199998      -2.60112688      -3.74793738
H        8.72572907      -2.05255818      -6.55470152
H        9.62305304      -6.51577471      -6.98917297
H       11.82492121      -6.03100433      -8.53798261
C       12.17000681      -3.24180931      -9.08505027
C       13.00438408      -2.65557359      -9.72892778
Br      14.35350157      -1.70768003     -10.77002326
C       -0.86721244      -0.86721244      -0.86721244
C       -0.85066818      -2.24234932      -0.89142898
C       -1.84004092      -2.63397816      -1.82763835
C       -2.39445051      -1.47239933      -2.33129250
O       -1.78705218      -0.38874291      -1.74654161
C       -3.44045086      -1.24892403      -3.31477099
O       -4.13672145      -2.16135345      -3.75111275
N       -3.51553985       0.07480468      -3.70008921
C       -4.38435160       0.67769073      -4.62413612
C       -5.45552385       0.03564424      -5.24247008
C       -6.28007531       0.73575323      -6.13912627
C       -6.04604169       2.08506082      -6.42867975
C       -4.96216971       2.71508628      -5.81963308
C       -4.14435933       2.02064984      -4.92271975
N       -6.92618690       2.73360113      -7.31955308
C       -6.94896400       4.08036899      -7.64633278
O       -6.18756258       4.93218251      -7.19852292
C       -8.00101774       4.43597047      -8.58038048
C       -8.39820637       5.67537310      -9.04775454
C       -9.46608769       5.45028723      -9.94712870
C       -9.65570817       4.08784388      -9.98032020
O       -8.77998099       3.46099274      -9.14706332
H       -0.20997478      -2.88602009      -0.30474425
H       -2.11885022      -3.63863530      -2.11691924
H       -2.81982412       0.67634529      -3.27055150
H       -5.69035960      -1.00449996      -5.03595430
H       -7.11553657       0.20580036      -6.59046928
H       -4.71123393       3.75126726      -6.01963946
H       -3.31082651       2.55346556      -4.47144954
H       -7.65764422       2.17281989      -7.74304808
H       -7.95738099       6.62134534      -8.76041564
H      -10.02214577       6.19283323     -10.50258695
C      -10.64067213       3.41142986     -10.78400550
C      -11.46557945       2.84493312     -11.45709194
Br     -12.79938482       1.92895580     -12.54541578
C       -0.86721244       0.86721244       0.86721244
C       -2.16723422       0.59366322       1.22354903
C       -2.58135082       1.65997741       2.06032920
C       -1.51225537       2.53081724       2.15506973
O       -0.46433757       2.04569798       1.41230114
C       -1.35035217       3.78748546       2.86630825
O       -2.17811967       4.19408677       3.67698121
N       -0.19840463       4.45032069       2.49209906
C        0.29808778       5.68315639       2.94572839
C       -0.24642098       6.42060503       3.99532368
C        0.33938570       7.63623980       4.38659426
C        1.47600107       8.12992884       3.73573287
C        2.00399388       7.39515980       2.67555058
C        1.42500860       6.18233530       2.28910254
N        2.02681585       9.34444023       4.19451447
C        3.20532459       9.94291294       3.77733945
O        3.96556139       9.49483968       2.92462470
C        3.50599723      11.18290473       4.46852026
C        4.62468359      11.99312195       4.40214945
C        4.39353721      13.08173919       5.27472719
C        3.14669828      12.87582118       5.81906159
O        2.60136964      11.72116625       5.34625496
H       -2.74607586      -0.26884191       0.92350517
H       -3.54387336       1.79462390       2.53590750
H        0.33600275       3.98430011       1.76573297
H       -1.11563684       6.07061246       4.54456457
H       -0.10420421       8.17621176       5.21978951
H        2.86786125       7.73379200       2.11367538
H        1.87167302       5.64356766       1.45691585
H        1.53987961       9.82323819       4.94451383
H        5.49725660      11.80343076       3.79027713
H        5.05572917      13.91272722       5.47490144
C        2.50085035      13.75620384       6.75789427
C        1.95995270      14.49352432       7.54416665
Br       1.08536695      15.68570918       8.81550257
C        0.86721244      -0.86721244       0.86721244
C        2.22981946      -0.74510226       1.00952476
C        2.62265055      -1.74460417       1.93440271
C        1.47646331      -2.42869012       2.29298891
O        0.40138453      -1.89355971       1.62739245
C        1.26144730      -3.54596133       3.19673725
O        2.14072061      -3.96288667       3.94558037
N       -0.00852110      -4.07398894       3.07535653
C       -0.58662989      -5.15155284       3.76587404
C        0.00767349      -5.82048216       4.83419405
C       -0.66502219      -6.87599494       5.47247559
C       -1.93908678      -7.27589479       5.05285262
C       -2.51909933      -6.61338907       3.97242676
C       -1.85274213      -5.55900688       3.34016449
N       -2.56735804      -8.32680977       5.75268713
C       -3.86145951      -8.79330911       5.58307820
O       -4.67539063      -8.35107260       4.77822102
C       -4.21338686      -9.87631796       6.48249665
C       -5.42420911     -10.51430054       6.68049638
C       -5.20839355     -11.50407812       7.66724459
C       -3.87887204     -11.41632713       8.01072940
O       -3.26572956     -10.42510250       7.30667863
H        2.86384789      -0.02317068       0.51372056
H        3.61950811      -1.95770077       2.29719588
H       -0.58003256      -3.63127327       2.36278962
H        0.98606892      -5.53507536       5.20966958
H       -0.17629471      -7.36412610       6.31237410
H       -3.49265689      -6.89006499       3.58219804
H       -2.34449039      -5.07147364       2.50182723
H       -2.04055234      -8.77201812       6.49640663
H       -6.34590799     -10.27798189       6.16437739
H       -5.93485974     -12.19561106       8.07114817
C       -3.21986952     -12.25459665       8.97852064
C       -2.66795490     -12.95664737       9.78904580
Br      -1.77555565     -14.09180402      11.09959644
