178
Properties=species:S:1:pos:R:3 pbc="F F F"
C        1.82525761       1.82525761      -1.82525761
C        1.56096084       3.28908549      -1.51508517
C        2.42398762       4.19556206      -2.35547322
C        1.99131749       4.64220560      -3.60261185
C        2.80524894       5.47687072      -4.37861800
C        4.08221463       5.88938398      -3.94710450
C        4.50348457       5.43790577      -2.68081672
C        3.68647597       4.59350704      -1.90640201
S        6.09308867       5.85778898      -1.99148867
C        6.54214243       7.27514484      -2.97521755
C        7.56822285       8.09036770      -2.46995086
C        8.00215869       9.21079840      -3.17306005
C        7.41605591       9.53262626      -4.39587095
C        7.85285394      10.76411749      -5.15079487
C        7.03692704      11.98137382      -4.74692866
C        6.38807778       8.71421659      -4.89675669
C        5.93688545       7.56298687      -4.21451988
N        4.89057491       6.75451575      -4.72629269
C        4.62769633       6.81457686      -6.16673492
H        1.58258797       1.57099364      -2.86128687
H        2.86025461       1.53691247      -1.61880443
H        1.74333753       3.49783383      -0.45282004
H        0.50425093       3.53495923      -1.68404423
H        1.01139761       4.35858189      -3.98136528
H        2.39668632       5.82461747      -5.32333117
H        4.04130984       4.24897711      -0.93623571
H        8.03669854       7.85360737      -1.51695351
H        8.79528450       9.82700400      -2.75559431
H        7.76400907      10.57946686      -6.22943287
H        8.92185894      10.93883555      -4.97086493
H        7.14518119      12.22034070      -3.68503167
H        5.97485261      11.86435630      -4.98127850
H        5.91938191       9.01148510      -5.83141356
H        4.26228408       5.85804148      -6.55942375
H        5.53905372       7.01125374      -6.74422951
H        3.89124867       7.59354508      -6.39278668
C        7.49303377      13.13615692      -5.47634119
C        7.87502315      14.10328778      -6.08722417
Br       8.49266768      15.66705657      -7.07497030
C       -1.82525761      -1.82525761      -1.82525761
C       -2.43422838      -0.99110621      -2.93979690
C       -3.30224893      -1.82849790      -3.84427607
C       -4.65855257      -2.00221451      -3.57536786
C       -5.45345393      -2.78963912      -4.41764461
C       -4.92663188      -3.44043633      -5.55163491
C       -3.55626560      -3.24916809      -5.81677337
C       -2.75846973      -2.46322533      -4.96468995
S       -2.73105278      -4.00878116      -7.20253238
C       -4.11183394      -4.43345393      -8.24721695
C       -3.81794912      -4.72019424      -9.59039805
C       -4.82568854      -5.07900917     -10.48131943
C       -6.14554817      -5.15820241     -10.04080254
C       -7.25174085      -5.51147541     -11.00455004
C       -7.83116869      -4.27036691     -11.66369392
C       -6.43489634      -4.86866456      -8.69549016
C       -5.43287583      -4.51693629      -7.76458008
N       -5.74183886      -4.21551635      -6.41402813
C       -6.99368542      -4.74709154      -5.86823116
H       -2.58601508      -2.25920943      -1.16964398
H       -1.18367809      -2.62478573      -2.20750770
H       -1.64784301      -0.51011877      -3.53602962
H       -3.03071089      -0.16811493      -2.52442857
H       -5.11775158      -1.51746624      -2.71612696
H       -6.51133293      -2.85445637      -4.17884567
H       -1.69915511      -2.34157798      -5.18578957
H       -2.79302080      -4.66327082      -9.95096781
H       -4.56994540      -5.29088694     -11.51705046
H       -8.03419914      -6.06731313     -10.47139653
H       -6.86406548      -6.20558443     -11.76190951
H       -7.08438411      -3.72151120     -12.24465825
H       -8.28998678      -3.59214913     -10.93835149
H       -7.47725898      -4.89665443      -8.38836715
H       -6.91569245      -4.96732273      -4.79673412
H       -7.26533341      -5.70842527      -6.32077830
H       -7.81466902      -4.03865167      -6.02425974
C       -8.87075251      -4.64968087     -12.58509850
C       -9.74140396      -4.96735630     -13.35677484
Br     -11.14917371      -5.48101061     -14.60451022
C       -1.82525761       1.82525761       1.82525761
C       -2.13290972       1.10492082       3.12730096
C       -2.99098815       1.94885751       4.03517725
C       -4.38153958       1.88850082       3.96609453
C       -5.16870972       2.68369844       4.80832950
C       -4.60193464       3.57439528       5.74237319
C       -3.19534160       3.61893133       5.80793412
C       -2.40693227       2.82400710       4.95544564
S       -2.31968698       4.69752568       6.92515366
C       -3.59334751       5.08990049       8.10925682
C       -3.16696597       5.62624456       9.33533088
C       -4.08665781       5.98100131      10.31835803
C       -5.45007740       5.80574222      10.08873350
C       -6.45506427       6.15319824      11.15950379
C       -6.73130686       4.96609947      12.06782318
C       -5.87186981       5.26694730       8.86023396
C       -4.96441768       4.91191019       7.83806433
N       -5.40419614       4.35795712       6.60923008
C       -6.78826356       4.61731736       6.20342721
H       -2.72882463       2.03928087       1.24676298
H       -1.27382968       2.75648468       1.98565715
H       -1.20493208       0.83892923       3.65013009
H       -2.64106147       0.15166340       2.93052952
H       -4.87099624       1.21351346       3.26683508
H       -6.24596339       2.56288130       4.73579027
H       -1.32159430       2.88663790       5.01829046
H       -2.10639657       5.76977839       9.53108446
H       -3.72792430       6.38957377      11.26038474
H       -7.38252104       6.50301115      10.68737661
H       -6.08315980       7.00659438      11.74180525
H       -5.83324556       4.62586614      12.59144186
H       -7.17088011       4.12356577      11.52604153
H       -6.93746680       5.10130963       8.72350413
H       -6.89510053       4.67133990       5.11330886
H       -7.14566704       5.59207147       6.55679846
H       -7.45544623       3.83677719       6.58535700
C       -7.68120982       5.34139362      13.08292843
C       -8.47675355       5.65570247      13.93307908
Br      -9.76308047       6.16391329      15.30770078
C        1.82525761      -1.82525761       1.82525761
C        2.18248517      -3.10118912       1.08145721
C        3.06658662      -3.99535885       1.91307744
C        2.51830993      -4.94747439       2.77035061
C        3.34917514      -5.76669478       3.54486774
C        4.75426196      -5.66214102       3.50230014
C        5.29542041      -4.70180368       2.62498297
C        4.45794507      -3.87515871       1.85328124
S        7.05005489      -4.43362622       2.45868521
C        7.70526999      -5.94347017       3.14376466
C        9.04522520      -6.23919873       2.84411748
C        9.65318766      -7.38641655       3.34641293
C        8.92884180      -8.25643692       4.15927440
C        9.56543947      -9.52124112       4.68108571
C        9.36258347     -10.68190606       3.72073999
C        7.58716359      -7.95677325       4.45511422
C        6.94749716      -6.79355848       3.97333655
N        5.59005502      -6.51133653       4.26999178
C        5.00925190      -7.14044869       5.45930753
H        1.25426707      -2.02342574       2.73717567
H        2.70800314      -1.23026506       2.07770332
H        2.68976242      -2.86805656       0.13617242
H        1.27470214      -3.65020330       0.79834895
H        1.43962035      -5.07417170       2.83755273
H        2.86439136      -6.51689476       4.16334884
H        4.90192779      -3.13249653       1.19209834
H        9.62523913      -5.57084228       2.21117802
H       10.69083416      -7.59295732       3.09409133
H        9.14675381      -9.75813930       5.66801569
H       10.63551357      -9.34403946       4.85200639
H        9.81367439     -10.49491410       2.74196507
H        8.30531628     -10.92852377       3.58664736
H        7.03295642      -8.67320889       5.05611525
H        4.24299433      -6.51019712       5.92655785
H        5.75303811      -7.29030868       6.25119019
H        4.56357385      -8.10853226       5.20547431
C        9.99596811     -11.86372437       4.24583940
C       10.52642775     -12.85349720       4.68561016
Br      11.38413612     -14.45387615       5.39668227
C       -0.00445707       0.01189536      -1.78238275
H       -0.66409135       0.67374010      -2.43557963
H        0.65740317      -0.63156657      -2.45157240
C       -0.90989263      -0.90692880      -0.91072765
C        0.90977584       0.90977584      -0.90977584
C       -0.00465871       1.77757030       0.00794375
H       -0.66225468       2.44313916      -0.64384735
H        0.64322798       2.43503045       0.67728295
C       -1.78241447       0.00034974      -0.00472694
H       -2.45427497      -0.65498947       0.64260836
H       -2.43311707       0.67328779      -0.65473579
C       -0.91132561       0.90220522       0.91563759
C       -0.01476271      -0.02253852       1.78660255
H       -0.67934791      -0.69751639       2.42135241
H        0.63392994       0.61504881       2.47327442
C        0.01484550      -1.77751727      -0.01636693
H        0.67870853      -2.42144646      -0.68295456
H       -0.62264859      -2.45592969       0.64226336
C        1.78714474       0.01002794       0.00389507
H        2.44202412       0.67113390       0.66197326
H        2.45385902      -0.65136977      -0.64189061
C        0.91606151      -0.90478549       0.90901405
