77
Properties=species:S:1:pos:R:3 pbc="F F F"
C        0.00000000       0.00000000       0.00000000
N       -0.73710954       5.84335939      -2.39676562
C        0.35645078       5.03766861      -2.51995985
O        1.36128977       5.22145811      -1.84751892
C        0.22983166       3.97100504      -3.57565746
C        1.42350391       3.02193882      -3.55238815
N        1.49469569       2.19338435      -2.36705135
N        0.38967621       1.55614063      -1.92355551
C        0.87886509       0.87886509      -0.87886509
N        2.22248375       1.01409273      -0.67372776
C        2.58710332       1.84446757      -1.62308626
H       -1.62610513       5.63355487      -2.83129287
H       -0.71705633       6.54663549      -1.66616559
H        0.18788018       4.47116058      -4.55279122
H       -0.71288499       3.43055858      -3.43606696
H        2.35702737       3.58559342      -3.64381971
H        1.36788608       2.33184231      -4.40275385
C        3.95093006       2.25820394      -1.82899607
C        5.09313495       2.60470815      -2.00144554
Br       6.93998365       3.16497615      -2.28028175
N       -6.18712499      -1.45993194       0.14404146
C       -5.27212411      -1.85488007      -0.78707506
O       -5.21593544      -1.32599385      -1.88833750
C       -4.40610752      -3.01061654      -0.35977011
C       -3.31499765      -3.29647321      -1.38636001
N       -2.31256560      -2.25639535      -1.48617044
N       -1.76698566      -1.73720857      -0.36517811
C       -0.87886509      -0.87886509      -0.87886509
N       -0.80183741      -0.86593808      -2.24252875
C       -1.71215267      -1.74146515      -2.60103932
H       -6.16603547      -1.77703341       1.10432627
H       -6.76121936      -0.65437136      -0.08015403
H       -5.05117283      -3.89479844      -0.26586071
H       -3.98037969      -2.80107858       0.62771773
H       -3.75729143      -3.45436707      -2.37478200
H       -2.77687267      -4.21212107      -1.11348851
C       -1.96816478      -2.09725985      -3.97270544
C       -2.18257492      -2.39523790      -5.12147581
Br      -2.52925799      -2.87704321      -6.97894035
N        0.15998855       1.48136869       6.18163533
C       -0.71286184       1.95464062       5.24657678
O       -0.58843488       3.07337797       4.76845394
C       -1.84359622       1.01599469       4.91690326
C       -2.68784193       1.54696613       3.76302281
N       -1.99951261       1.56633909       2.48927970
N       -1.29615366       0.48575184       2.08746685
C       -0.87886509       0.87886509       0.87886509
N       -1.31651334       2.11072718       0.48306371
C       -2.02029318       2.52212869       1.51223527
H        0.16740336       0.51758197       6.48856399
H        0.96446969       2.05859877       6.40161566
H       -2.47462881       0.92567887       5.81152430
H       -1.43882890       0.02313914       4.69177251
H       -3.04154594       2.55807477       3.98681980
H       -3.56962786       0.91047460       3.62237979
C       -2.72094558       3.77992843       1.53725606
C       -3.30774196       4.83333571       1.55821097
Br      -4.25654208       6.53660619       1.59209328
N        5.12192778       1.19312259       3.57421028
C        4.47154113       0.00139537       3.44393348
O        3.71203767      -0.40719319       4.31103593
C        4.81738158      -0.76482174       2.19429084
C        3.94538354      -2.00720837       2.04523896
N        2.55027777      -1.72028611       1.78456751
N        2.21421632      -0.80564233       0.84951370
C        0.87886509      -0.87886509       0.87886509
N        0.36470285      -1.81200789       1.73359350
C        1.43557031      -2.32864155       2.29044529
H        5.64105394       1.62136501       2.81905368
H        4.88588312       1.76680901       4.37667064
H        5.86937578      -1.07168452       2.27077168
H        4.72411497      -0.10476508       1.32486050
H        4.01460721      -2.62820468       2.94362861
H        4.29539814      -2.60903920       1.19804489
C        1.38675404      -3.40009125       3.25128478
C        1.34587042      -4.29743036       4.05598786
Br       1.27976506      -5.74835182       5.35712467
