90
Properties=species:S:1:pos:R:3 pbc="F F F"
N        0.17279449       6.75326342      -3.30666965
C        1.26635480       5.94757264      -3.42986387
O        2.27119379       6.13136213      -2.75742294
C        1.13973569       4.88090906      -4.48556149
C        2.33340793       3.93184284      -4.46229217
N        2.40459971       3.10328837      -3.27695537
N        1.29958023       2.46604465      -2.83345953
C        1.78876911       1.78876911      -1.78876911
N        3.13238777       1.92399675      -1.58363179
C        3.49700735       2.75437159      -2.53299028
Br       5.26704865       3.29133897      -2.80023015
H       -0.71620111       6.54345889      -3.74119689
H        0.19284769       7.45653951      -2.57606961
H        1.09778421       5.38106460      -5.46269525
H        0.19701903       4.34046260      -4.34597098
H        3.26693139       4.49549745      -4.55372374
H        2.27779011       3.24174634      -5.31265787
N       -6.88294146      -3.01374932      -0.33603677
C       -6.03682241      -3.22161703      -1.38535187
O       -6.14583591      -2.58828187      -2.42586107
C       -5.02588888      -4.31591792      -1.16439944
C       -4.02564581      -4.38842034      -2.31347680
N       -3.14163924      -3.24478114      -2.39842308
N       -2.53360110      -2.77959040      -1.28589291
C       -1.78876911      -1.78876911      -1.78876911
N       -1.85584597      -1.63935710      -3.14481325
C       -2.71193247      -2.56726142      -3.50517533
Br      -3.18289161      -2.89121056      -5.28451559
H       -6.73207957      -3.41605457       0.57967946
H       -7.55066275      -2.25487641      -0.41991766
H       -5.57139096      -5.26740738      -1.10274572
H       -4.52122899      -4.15720478      -0.20501885
H       -4.55167431      -4.49764042      -3.26683784
H       -3.37808328      -5.26462640      -2.18948464
N       -0.25439744       3.15583000       6.82250012
C       -1.27699911       3.41018831       5.95660389
O       -1.34591998       4.46775299       5.34630589
C       -2.31185081       2.31895557       5.87539986
C       -3.33753846       2.60619877       4.78380572
N       -2.80162852       2.54306419       3.44015075
N       -2.01818278       1.50515269       3.07574894
C       -1.78876911       1.78876911       1.78876911
N       -2.41692890       2.90612767       1.31695974
C       -3.04852701       3.36198747       2.37385474
Br      -4.14433743       4.87551500       2.33876533
H       -0.09358100       2.24434845       7.23052523
H        0.49150617       3.84106918       6.87589381
H       -2.82425798       2.27138049       6.84590559
H       -1.81426051       1.35656757       5.71262454
H       -3.78718768       3.59205168       4.93691321
H       -4.14356733       1.86384650       4.82478049
N        6.08239327       0.26602311       4.41635739
C        5.41799609      -0.91995765       4.30583757
O        4.66355885      -1.31110050       5.18531951
C        5.74219908      -1.70310734       3.06089982
C        4.85547475      -2.93755755       2.93451065
N        3.46077826      -2.63843462       2.68563057
N        3.12443100      -1.73023216       1.74442125
C        1.78876911      -1.78876911       1.78876911
N        1.27392906      -2.70717710       2.65891016
C        2.34516570      -3.22934489       3.20985864
Br       2.28043174      -4.60581205       4.47237397
H        6.59789417       0.68059487       3.65115538
H        5.86111384       0.85072367       5.21506665
H        6.79162962      -2.02043782       3.12947661
H        5.64661523      -1.05137628       2.18546111
H        4.92774566      -3.54966588       3.83874104
H        5.18993030      -3.55210143       2.09016258
C       -0.00445707       0.01189536      -1.78238275
H       -0.66409135       0.67374010      -2.43557963
H        0.65740317      -0.63156657      -2.45157240
C       -0.90989263      -0.90692880      -0.91072765
C        0.90977584       0.90977584      -0.90977584
C       -0.00465871       1.77757030       0.00794375
H       -0.66225468       2.44313916      -0.64384735
H        0.64322798       2.43503045       0.67728295
C       -1.78241447       0.00034974      -0.00472694
H       -2.45427497      -0.65498947       0.64260836
H       -2.43311707       0.67328779      -0.65473579
C       -0.91132561       0.90220522       0.91563759
C       -0.01476271      -0.02253852       1.78660255
H       -0.67934791      -0.69751639       2.42135241
H        0.63392994       0.61504881       2.47327442
C        0.01484550      -1.77751727      -0.01636693
H        0.67870853      -2.42144646      -0.68295456
H       -0.62264859      -2.45592969       0.64226336
C        1.78714474       0.01002794       0.00389507
H        2.44202412       0.67113390       0.66197326
H        2.45385902      -0.65136977      -0.64189061
C        0.91606151      -0.90478549       0.90901405
