125
Properties=species:S:1:pos:R:3 pbc="F F F"
C        0.00000000       0.00000000       0.00000000
C        0.88168982       0.88168982      -0.88168982
C        1.81745687       0.29553233      -1.73019261
C        2.62727369       1.10388899      -2.53413011
C        2.50901297       2.50333313      -2.49787506
C        1.55663700       3.07274329      -1.63770194
C        0.74606737       2.26686621      -0.83180735
C        3.34884963       3.36423479      -3.32043312
N        3.36141771       4.67020260      -3.45235688
N        4.37118516       4.95836949      -4.34467274
C        4.93665616       3.81390733      -4.71790957
O        4.30321874       2.75888169      -4.08353563
C        6.03495124       3.65889647      -5.61696534
C        6.60611918       4.75262812      -6.15068826
C        7.74087393       4.63606045      -7.05203282
C        8.36113694       5.75197204      -7.61867534
C        9.45664977       5.57553215      -8.46865992
Br      10.29782439       7.08693062      -9.23355688
C        9.94001928       4.29788257      -8.75893646
C        9.32137927       3.18267027      -8.19628992
C        8.23048474       3.36951117      -7.35084861
O        7.63154329       2.22309824      -6.80187266
C        6.53638587       2.29776641      -5.94154125
O        6.03708307       1.27141037      -5.49376789
H        1.92800449      -0.78505033      -1.77487678
H        3.35449648       0.62612707      -3.19029765
H        1.44204219       4.15492406      -1.58771341
H        0.01802896       2.73032127      -0.17094112
H        6.24865540       5.75349128      -5.92027781
H        7.99892964       6.75386814      -7.40131681
H       10.79359744       4.16317447      -9.41906383
H        9.68626813       2.18269037      -8.41276395
C       -0.88168982      -0.88168982      -0.88168982
C       -0.86210954      -2.26430177      -0.71677050
C       -1.66670958      -3.07115582      -1.52742738
C       -2.49742515      -2.50435350      -2.50844251
C       -2.50397984      -1.10806788      -2.65503451
C       -1.69962498      -0.29869878      -1.84641717
C       -3.33676826      -3.32718748      -3.36956179
N       -4.19476678      -2.98645369      -4.30275672
N       -4.69512177      -4.16356844      -4.81553718
C       -4.11734120      -5.17596667      -4.17516519
O       -3.23650410      -4.67990727      -3.22922468
C       -4.33439597      -6.56770034      -4.40871674
C       -5.18357408      -6.94599520      -5.37986628
C       -5.41289517      -8.35354352      -5.66252851
C       -6.28341633      -8.78027340      -6.66809459
C       -6.45243172     -10.14823793      -6.90017218
Br      -7.62921122     -10.72550718      -8.26359350
C       -5.76201802     -11.09474529      -6.14007500
C       -4.89434002     -10.67132924      -5.13467021
C       -4.73327118      -9.30604723      -4.91152610
O       -3.85103396      -8.91545438      -3.89002585
C       -3.61467044      -7.57499425      -3.58602883
O       -2.84518061      -7.27827523      -2.67880548
H       -0.22676281      -2.72599553       0.03492740
H       -1.63607849      -4.15101922      -1.38382349
H       -3.13765010      -0.63974435      -3.40728521
H       -1.71866450       0.77983876      -1.98046561
H       -5.71524631      -6.21849258      -5.98868561
H       -6.82692913      -8.05655097      -7.27063449
H       -5.89373490     -12.15844600      -6.32365483
H       -4.35041496     -11.39589683      -4.53541066
C       -0.88168982       0.88168982       0.88168982
C       -2.26037238       0.89659305       0.68621638
C       -3.06651367       1.70744814       1.49133097
C       -2.50301614       2.50916154       2.49804349
C       -1.11126467       2.47592542       2.67989214
C       -0.30244668       1.66673410       1.87556014
C       -3.32364301       3.36787383       3.34200070
N       -2.99177738       4.14804717       4.34415264
N       -4.15772241       4.74642534       4.77007965
C       -5.15418330       4.30850749       4.00578226
O       -4.65987802       3.41227662       3.07348141
C       -6.52709869       4.69070763       4.09300672
C       -6.89849653       5.60041259       5.01052644
C       -8.28303754       6.03164102       5.11428864
C       -8.70101091       6.97900753       6.05176588
C      -10.04457714       7.36213736       6.09412734
Br     -10.60954434       8.64687701       7.36189055
C      -10.97526854       6.81052119       5.21104858
C      -10.56090339       5.86341435       4.27602172
C       -9.21998488       5.48853656       4.24232308
O       -8.83793112       4.53136203       3.28722104
C       -7.52101274       4.08840106       3.16627973
O       -7.23293363       3.24308917       2.32623853
H       -2.71928853       0.28562200      -0.08707960
H       -4.14302575       1.70622757       1.32166789
H       -0.64553993       3.08678924       3.45235048
H        0.77315475       1.66000706       2.03243904
H       -6.18051596       6.04852126       5.69338728
H       -7.98896190       7.42007685       6.74507586
H      -12.01968440       7.11147798       5.24467336
H      -11.27336471       5.42573143       3.58262631
C        0.88168982      -0.88168982       0.88168982
C        0.93855257      -0.65083509       2.25379415
C        1.74943113      -1.45607648       3.05978518
C        2.50928679      -2.49821133       2.50272304
C        2.43410931      -2.71530086       1.11767206
C        1.62480138      -1.91095575       0.30898379
C        3.36736475      -3.34317100       3.32298179
N        4.11200998      -4.37413803       2.99782918
N        4.73006223      -4.78539953       4.15876564
C        4.33901434      -3.98396255       5.14549617
O        3.45447401      -3.04121623       4.64994581
C        4.75539902      -4.04558344       6.50983058
C        5.65050152      -4.97712122       6.88181282
C        6.11576044      -5.05627690       8.25692986
C        7.04922414      -6.00755233       8.67500786
C        7.46692154      -6.02513095      10.00878934
Br       8.73285065      -7.31165688      10.57380436
C        6.96358977      -5.10366754      10.92958101
C        6.03041824      -4.15475373      10.51516748
C        5.62081227      -4.14598363       9.18404862
O        4.67896733      -3.17589761       8.80164925
C        4.20424039      -3.07749932       7.49395382
O        3.37369630      -2.22293790       7.20562713
H        0.36042809       0.15021947       2.70762232
H        1.78142634      -1.25845470       4.13104016
H        3.01196634      -3.51569287       0.65702044
H        1.58522149      -2.09556596      -0.76149610
H        6.06130355      -5.69019630       6.17092464
H        7.45287818      -6.73072645       7.97050998
H        7.29139723      -5.11811078      11.96632772
H        5.63016149      -3.43157407      11.21998689
