154
Properties=species:S:1:pos:R:3 pbc="F F F"
C        1.79159384       1.79159384      -1.79159384
C        2.72736090       1.20543635      -2.64009664
C        3.53717771       2.01379302      -3.44403413
C        3.41891700       3.41323716      -3.40777908
C        2.46654103       3.98264732      -2.54760596
C        1.65597139       3.17677024      -1.74171137
C        4.25875365       4.27413882      -4.23033714
N        4.27132173       5.58010663      -4.36226091
N        5.28108918       5.86827352      -5.25457677
C        5.84656019       4.72381135      -5.62781360
O        5.21312276       3.66878571      -4.99343965
C        6.94485526       4.56880049      -6.52686937
C        7.51602321       5.66253214      -7.06059228
C        8.65077795       5.54596448      -7.96193685
C        9.27104096       6.66187607      -8.52857937
C       10.36655379       6.48543617      -9.37856394
C       10.84992330       5.20778660      -9.66884048
C       10.23128329       4.09257430      -9.10619394
C        9.14038876       4.27941519      -8.26075263
O        8.54144732       3.13300226      -7.71177668
C        7.44628989       3.20767043      -6.85144527
O        6.94698709       2.18131439      -6.40367191
H        2.83790852       0.12485369      -2.68478080
H        4.26440051       1.53603109      -4.10020168
H        2.35194621       5.06482808      -2.49761743
H        0.92793298       3.64022530      -1.08084514
H        7.15855943       6.66339530      -6.83018184
H        8.90883367       7.66377217      -8.31122084
H       11.70350146       5.07307849     -10.32896785
H       10.59617216       3.09259440      -9.32266797
C       11.00701254       7.63619410      -9.96094593
C       11.54339674       8.59995387     -10.44869084
Br      12.41068463      10.15827190     -11.23733311
C       -1.79159384      -1.79159384      -1.79159384
C       -2.77921630      -1.21067319      -2.58300439
C       -3.58886500      -2.01924484      -3.38689502
C       -3.41870407      -3.41364840      -3.40758076
C       -2.41466336      -3.97764300      -2.60448794
C       -1.60409947      -3.17159015      -1.79876338
C       -4.25712807      -4.27514730      -4.23095424
N       -4.22732603      -5.57502731      -4.41133592
N       -5.25882022      -5.86843325      -5.27668599
C       -5.87901178      -4.73326713      -5.58590622
O       -5.26081231      -3.67885035      -4.93568547
C       -7.01522153      -4.58718339      -6.43812019
C       -7.56605060      -5.68155897      -6.99153807
C       -8.73736363      -5.57515365      -7.84616200
C       -9.33765478      -6.69233186      -8.43150976
C      -10.47001775      -6.52652145      -9.23401470
C      -11.00992625      -5.25826871      -9.45835542
C      -10.41138078      -4.14170507      -8.87696568
C       -9.28342379      -4.31791131      -8.07922149
O       -8.70619424      -3.17043484      -7.50959719
C       -7.57748419      -3.23500051      -6.69292091
O       -7.09921236      -2.20749643      -6.22526461
H       -2.93043990      -0.13410097      -2.58300214
H       -4.35707052      -1.54570033      -3.99786242
H       -2.25914080      -5.05585117      -2.59939976
H       -0.83542112      -3.63098687      -1.18259543
H       -7.16415390      -6.67596692      -6.81201574
H       -8.93147426      -7.68712019      -8.26523222
H      -11.89203564      -5.13191661     -10.08159555
H      -10.82013654      -3.14896318      -9.04233480
C      -11.08980636      -7.67868747      -9.83565874
C      -11.60887932      -8.64362651     -10.33953562
Br     -12.44817639     -10.20385133     -11.15426192
C       -1.79159384       1.79159384       1.79159384
C       -1.78662421       3.17270836       1.61356132
C       -2.59118885       3.97961945       2.42419656
C       -3.40729151       3.41436102       3.41828070
C       -3.39927906       2.01952279       3.57799245
C       -2.59491671       1.21011386       2.76942243
C       -4.24627477       4.23740224       4.27955260
N       -5.09224186       3.89748506       5.22396233
N       -5.59887562       5.07465736       5.73040648
C       -5.03670749       6.08632345       5.07515420
O       -4.16011581       5.58961482       4.12561750
C       -5.26470803       7.47810909       5.29770799
C       -6.10829472       7.85759819       6.27325473
C       -6.34825022       9.26554632       6.54488273
C       -7.21331357       9.69359158       7.55459124
C       -7.39306818      11.06204596       7.77543977
C       -6.71877499      12.00775003       7.00002537
C       -5.85658435      11.58299321       5.99047397
C       -5.68471731      10.21723115       5.77860812
O       -4.80842957       9.82527883       4.75251786
C       -4.56226594       8.48427727       4.45886239
O       -3.79853293       8.18621491       3.54722556
H       -1.16273322       3.63320559       0.85160419
H       -2.57210901       5.05831706       2.27020721
H       -4.02142590       1.55241729       4.34054853
H       -2.60250799       0.13276021       2.91373522
H       -6.62734610       7.13093597       6.89385450
H       -7.74429899       8.97053904       8.16898865
H       -6.85881323      13.07185837       7.17487620
H       -5.32516400      12.30692570       5.37934483
C       -8.28340823      11.50295402       8.81779032
C       -9.02906803      11.87221451       9.69075891
Br     -10.23473685      12.46927751      11.10227528
C        1.79159384      -1.79159384       1.79159384
C        1.79183003      -3.17211489       1.60894896
C        2.59638229      -3.97904623       2.41957633
C        3.40727854      -3.41439765       3.41825705
C        3.39407557      -2.02013506       3.58258367
C        2.58971038      -1.21071213       2.77403050
C        4.24613435      -4.23751349       4.27958177
N        5.08781273      -3.89793831       5.22793822
N        5.59668681      -5.07510252       5.73215014
C        5.04008534      -6.08644020       5.07165960
O        4.16500536      -5.58948369       4.12085908
C        5.27199120      -7.47819470       5.29033921
C        6.11358845      -7.85812972       6.26742946
C        6.35733975      -9.26617066       6.53516886
C        7.22046188      -9.69470391       7.54633060
C        7.40405009     -11.06328233       7.76322149
C        6.73550452     -12.00863063       6.98241523
C        5.87526553     -11.58337674       5.97140926
C        5.69954389     -10.21749436       5.76351834
O        4.82537258      -9.82503630       4.73581739
C        4.57571016      -8.48388828       4.44580716
O        3.81402492      -8.18532672       3.53262175
H        1.17202065      -3.63213892       0.84338345
H        2.58141827      -5.05728102       2.26193398
H        4.01211676      -1.55351065       4.34876432
H        2.59322266      -0.13382721       2.92195355
H        6.62814095      -7.13182054       6.89217508
H        7.74698098      -8.97194392       8.16490177
H        6.87851338     -13.07284497       7.15418945
H        5.34830356     -12.30702904       5.35610193
C        8.29238294     -11.50470312       8.80706651
C        9.03636171     -11.87439303       9.68128671
Br      10.23931245     -12.47215035      11.09482684
C       -0.00445707       0.01189536      -1.78238275
H       -0.66409135       0.67374010      -2.43557963
H        0.65740317      -0.63156657      -2.45157240
C       -0.90989263      -0.90692880      -0.91072765
C        0.90977584       0.90977584      -0.90977584
C       -0.00465871       1.77757030       0.00794375
H       -0.66225468       2.44313916      -0.64384735
H        0.64322798       2.43503045       0.67728295
C       -1.78241447       0.00034974      -0.00472694
H       -2.45427497      -0.65498947       0.64260836
H       -2.43311707       0.67328779      -0.65473579
C       -0.91132561       0.90220522       0.91563759
C       -0.01476271      -0.02253852       1.78660255
H       -0.67934791      -0.69751639       2.42135241
H        0.63392994       0.61504881       2.47327442
C        0.01484550      -1.77751727      -0.01636693
H        0.67870853      -2.42144646      -0.68295456
H       -0.62264859      -2.45592969       0.64226336
C        1.78714474       0.01002794       0.00389507
H        2.44202412       0.67113390       0.66197326
H        2.45385902      -0.65136977      -0.64189061
C        0.91606151      -0.90478549       0.90901405
