158
Properties=species:S:1:pos:R:3 pbc="F F F"
C        1.77717933       1.77717933      -1.77717933
C        3.10183808       2.06424781      -1.54104795
C        3.50989436       2.92861458      -2.58461165
C        2.41221290       3.10769799      -3.40515198
O        1.35142034       2.39242540      -2.91358638
C        2.25664270       3.88324405      -4.61515185
O        3.10178914       4.68063484      -5.01807901
N        1.09720380       3.62469593      -5.31591299
C        0.81747285       4.21397284      -6.60718282
C        1.34690461       3.38622933      -7.77813695
C        2.87196128       3.27636550      -7.80416786
N        3.35980635       2.61055998      -8.99396649
C        3.21572801       1.25417930      -9.19850945
O        2.57837573       0.53204613      -8.43704366
C        3.87729359       0.76322230     -10.38855757
C        3.87390779      -0.48877097     -10.97363679
C        4.70347948      -0.40687908     -12.11791209
C        5.16878413       0.88713473     -12.16091185
O        4.66938050       1.60880703     -11.12219982
H        3.70144338       1.70183863      -0.71782920
H        4.48605983       3.36812750      -2.74139680
H        0.49022170       2.89633047      -4.95423648
H        1.22785057       5.22889663      -6.64098946
H       -0.27246684       4.29176613      -6.68440287
H        1.00598269       3.84759007      -8.71360680
H        0.89924781       2.38606094      -7.74500870
H        3.23675935       2.70991427      -6.94146804
H        3.32894020       4.27135180      -7.78739701
H        3.96675262       3.11243807      -9.63233525
H        3.33009041      -1.34910096     -10.60601648
H        4.93387149      -1.19676667     -12.81911061
C        6.06167545       1.41347660     -13.16056646
C        6.80947192       1.85428791     -13.99777719
Br       8.01859558       2.56704252     -15.35147614
C       -1.77717933      -1.77717933      -1.77717933
C       -1.38050768      -2.37602168      -2.95060448
C       -2.51266138      -3.06834408      -3.44211512
C       -3.53157706      -2.86217681      -2.53130899
O       -3.07598415      -2.07704420      -1.50440376
C       -4.89803317      -3.33388032      -2.52312512
O       -5.42447433      -3.89140332      -3.48462533
N       -5.55968986      -3.15127417      -1.32684869
C       -6.89218248      -3.66049522      -1.08595081
C       -6.90489075      -5.08209882      -0.52428133
C       -6.33856672      -6.12260546      -1.49132245
N       -6.48845341      -7.47633914      -0.99954027
C       -5.73770478      -7.97516247       0.04445050
O       -4.96191343      -7.28084997       0.69529787
C       -5.94992432      -9.38317696       0.30402783
C       -5.47002647     -10.19940009       1.31065296
C       -5.98989742     -11.49390337       1.06928830
C       -6.75094619     -11.39344516      -0.07243937
O       -6.74094137     -10.11733818      -0.54210781
H       -0.39986033      -2.31934342      -3.40190747
H       -2.59069813      -3.66078869      -4.34409730
H       -5.02800293      -2.75307388      -0.55971184
H       -7.47401730      -3.61113237      -2.01258699
H       -7.35838714      -2.98286911      -0.36244591
H       -7.93990810      -5.35013542      -0.27713604
H       -6.34603372      -5.10291097       0.41862725
H       -5.27052108      -5.95494180      -1.66267878
H       -6.85849981      -6.07529715      -2.45389206
H       -7.04360171      -8.13983377      -1.52809045
H       -4.82289093      -9.88189680       2.11778180
H       -5.82441829     -12.38712894       1.65533180
C       -7.46128180     -12.48165291      -0.69278379
C       -8.05618789     -13.39302690      -1.21232225
Br      -9.01810070     -14.86664155      -2.05237199
C       -1.77717933       1.77717933       1.77717933
C       -1.33254093       2.54844856       2.82614435
C       -2.48030509       3.17083814       3.37197736
C       -3.55799156       2.75276969       2.61430161
O       -3.12370352       1.90448559       1.62924301
C       -4.96371461       3.07380201       2.71752199
O       -5.44803686       3.68217488       3.67029125
N       -5.72143990       2.68297016       1.63340266
C       -7.12253206       3.01721464       1.49888181
C       -7.36161546       4.35348703       0.79616841
C       -6.82318888       5.55442192       1.57488384
N       -7.18238151       6.81747255       0.96447876
C       -6.60966052       7.26607562      -0.20731938
O       -5.83031812       6.58545602      -0.86830861
C       -7.01236267       8.60351514      -0.58680435
C       -6.74054364       9.34143459      -1.72320463
C       -7.38095466      10.59341401      -1.55985618
C       -8.00048027      10.54860359      -0.33225315
O       -7.79088348       9.34488164       0.26462224
H       -0.31003712       2.64882464       3.16224945
H       -2.53222656       3.85386839       4.20948917
H       -5.23025015       2.25536392       0.85517458
H       -7.59374413       3.01638348       2.48760905
H       -7.57920842       2.21382402       0.91066972
H       -8.44121729       4.48014051       0.64582176
H       -6.91144246       4.32179144      -0.20291645
H       -5.73076990       5.52143086       1.63594090
H       -7.22973697       5.56636533       2.59158672
H       -7.75308934       7.47647471       1.48196189
H       -6.14906670       9.00095063      -2.56301141
H       -7.38442104      11.42381920      -2.25202482
C       -8.76478998      11.62146986       0.24945866
C       -9.40489937      12.51999536       0.73664230
Br     -10.43990211      13.97283510       1.52437704
C        1.77717933      -1.77717933       1.77717933
C        2.85904744      -2.50684271       1.34124368
C        3.35811736      -3.18836406       2.47663916
C        2.55846578      -2.82337390       3.54322318
O        1.59384544      -1.94924570       3.11434098
C        2.60991588      -3.20986957       4.93525315
O        3.32919253      -4.11349307       5.35781739
N        1.81767446      -2.44995908       5.77017918
C        1.82297675      -2.60739768       7.20825408
C        2.86568630      -1.73658860       7.90899599
C        4.30555153      -2.10150179       7.54544132
N        5.27820690      -1.36277780       8.32334812
C        5.52312032      -0.01995385       8.12534259
O        4.86698812       0.66680744       7.34728486
C        6.61551654       0.50379545       8.91735237
C        7.08381030       1.79500623       9.06996953
C        8.18416197       1.72786424       9.95821476
C        8.32658194       0.40046432      10.29071309
O        7.37710326      -0.35117326       9.67211084
H        3.24106562      -2.54916186       0.33088373
H        4.20495477      -3.85960213       2.53102722
H        1.31479432      -1.67417630       5.35181802
H        1.97659741      -3.66255598       7.45858326
H        0.82376393      -2.32371609       7.55622213
H        2.73403529      -1.83960151       8.99354276
H        2.67447811      -0.68333568       7.67250366
H        4.50611647      -1.89210348       6.48992171
H        4.49110537      -3.16443036       7.73215328
H        5.91924051      -1.86555078       8.92673464
H        6.66792907       2.67154262       8.59061948
H        8.79686778       2.54746840      10.30681605
C        9.33750761      -0.12966246      11.16854843
C       10.18415786      -0.57364364      11.90373553
Br      11.55311971      -1.29152366      13.09247089
C       -0.00445707       0.01189536      -1.78238275
H       -0.66409135       0.67374010      -2.43557963
H        0.65740317      -0.63156657      -2.45157240
C       -0.90989263      -0.90692880      -0.91072765
C        0.90977584       0.90977584      -0.90977584
C       -0.00465871       1.77757030       0.00794375
H       -0.66225468       2.44313916      -0.64384735
H        0.64322798       2.43503045       0.67728295
C       -1.78241447       0.00034974      -0.00472694
H       -2.45427497      -0.65498947       0.64260836
H       -2.43311707       0.67328779      -0.65473579
C       -0.91132561       0.90220522       0.91563759
C       -0.01476271      -0.02253852       1.78660255
H       -0.67934791      -0.69751639       2.42135241
H        0.63392994       0.61504881       2.47327442
C        0.01484550      -1.77751727      -0.01636693
H        0.67870853      -2.42144646      -0.68295456
H       -0.62264859      -2.45592969       0.64226336
C        1.78714474       0.01002794       0.00389507
H        2.44202412       0.67113390       0.66197326
H        2.45385902      -0.65136977      -0.64189061
C        0.91606151      -0.90478549       0.90901405
