137
Properties=species:S:1:pos:R:3 pbc="F F F"
C        0.00000000       0.00000000       0.00000000
C        4.63317031       2.94141297      -3.50658764
O        3.29805836       3.35399781      -3.22441502
C        2.53114140       2.51251550      -2.46095031
C        2.80691658       1.14626461      -2.31161212
C        1.98865477       0.33483087      -1.51951174
C        0.88151800       0.88151800      -0.88151800
C        0.57398400       2.22796595      -1.04129909
C        1.39185272       3.05512099      -1.83305557
C        0.97509914       4.49001396      -1.93578235
O       -0.19884520       4.77170514      -1.70689157
N        1.96089093       5.40540397      -2.23094221
C        1.87489620       6.78422794      -2.31372211
C        0.74592935       7.49283654      -2.16936223
C        0.75679814       8.94354151      -2.25592692
C       -0.41187974       9.69738535      -2.11604241
C       -0.34845001      11.09029998      -2.19529310
Br      -1.93167549      12.10828449      -2.00894675
C        0.86848310      11.73925656      -2.41001541
C        2.03602414      10.98898973      -2.55249519
C        1.96314347       9.59961816      -2.47612320
O        3.15731977       8.87584189      -2.63375711
C        3.17146644       7.48750413      -2.57603027
O        4.21081282       6.84530483      -2.72021099
H        5.16070304       2.64965136      -2.59229954
H        5.16093986       3.79759752      -3.93742604
H        4.64457996       2.13483371      -4.24602944
H        3.64905074       0.67574841      -2.81126565
H        2.22368704      -0.72145579      -1.41139917
H       -0.29908413       2.64706436      -0.54346628
H        2.89558191       5.03260311      -2.41547082
H       -0.21249723       7.02403422      -1.98277340
H       -1.36587328       9.20350907      -1.94584578
H        0.91581213      12.82388325      -2.46831568
H        2.98902169      11.48206949      -2.72084893
C       -4.50623089      -2.79083170      -3.78410832
O       -3.31852571      -3.33982145      -3.21812404
C       -2.53822216      -2.50087566      -2.46550939
C       -2.59273187      -1.10391814      -2.56814330
C       -1.77181123      -0.29682574      -1.77436041
C       -0.88151800      -0.88151800      -0.88151800
C       -0.79112303      -2.26565122      -0.78647479
C       -1.61442689      -3.08805412      -1.57754826
C       -1.44130258      -4.56449992      -1.39509295
O       -0.38014417      -4.97155974      -0.92804760
N       -2.51625988      -5.36242515      -1.71855209
C       -2.65852948      -6.73228788      -1.58202889
C       -1.70252004      -7.56315931      -1.14244876
C       -1.95099389      -8.98947510      -1.01579758
C       -0.96346383      -9.87100403      -0.56708016
C       -1.25422161     -11.23205829      -0.45086318
Br       0.08462638     -12.42364989       0.15346776
C       -2.52008485     -11.72267625      -0.77499397
C       -3.50674476     -10.84524635      -1.22551796
C       -3.20697161      -9.48952680      -1.34238641
O       -4.22192625      -8.63660803      -1.80838450
C       -4.00435904      -7.27234782      -1.95829399
O       -4.88457745      -6.51927548      -2.37247570
H       -5.10377984      -2.27133451      -3.02753958
H       -5.10495066      -3.62172744      -4.16928531
H       -4.26953123      -2.13129351      -4.62461835
H       -3.25837195      -0.60839855      -3.26929431
H       -1.83413155       0.78513409      -1.86463295
H       -0.08620509      -2.71594390      -0.08929752
H       -3.33516105      -4.89406556      -2.11442922
H       -0.71542840      -7.21494074      -0.86394125
H        0.02604627      -9.50054504      -0.30898280
H       -2.74498235     -12.78220757      -0.68082115
H       -4.49541758     -11.21475733      -1.48176520
C       -3.70474295       4.54942509       2.82700288
O       -3.21934210       3.31283149       3.34429761
C       -2.46390280       2.53647471       2.50422969
C       -2.49797958       2.65861941       1.10819431
C       -1.70479111       1.83835592       0.29985036
C       -0.88151800       0.88151800       0.88151800
C       -0.85602699       0.72449994       2.26272210
C       -1.64712658       1.54632432       3.08657838
C       -1.54248883       1.29847324       4.55993338
O       -1.14342366       0.19921493       4.93711292
N       -1.85448199       2.35046392       5.39229120
C       -1.77644844       2.42430159       6.77209623
C       -1.42004274       1.41217785       7.57590752
C       -1.34973986       1.58991700       9.01660971
C       -0.98802495       0.54362749       9.86989559
C       -0.92315195       0.76699165      11.24699947
Br      -0.43659928      -0.65117049      12.40012696
C       -1.21272473       2.02335289      11.78167745
C       -1.57647487       3.06867471      10.93235948
C       -1.64265554       2.83610485       9.56012444
O       -2.02172863       3.90928713       8.73590301
C       -2.11677516       3.76069115       7.35753454
O       -2.45491887       4.69248372       6.62892605
H       -2.89837377       5.13341561       2.37086455
H       -4.10132443       5.12761786       3.66702113
H       -4.52301811       4.38257134       2.11985364
H       -3.14429191       3.37822590       0.61354699
H       -1.74103714       1.95352601      -0.78093273
H       -0.21331577      -0.03207665       2.71020739
H       -2.19054918       3.20738473       4.94572193
H       -1.17015784       0.42973376       7.19441878
H       -0.75756676      -0.43926576       9.46518056
H       -1.15859437       2.19561539      12.85380131
H       -1.80507987       4.05068788      11.33617236
C        2.79562344      -3.77285798       4.51268949
O        3.34047651      -3.21826841       3.31772628
C        2.50135234      -2.46526690       2.53798797
C        1.10414276      -2.55835313       2.60229742
C        0.29687246      -1.76466001       1.78146491
C        0.88151800      -0.88151800       0.88151800
C        2.26561823      -0.79617227       0.78145854
C        3.08823175      -1.58724120       1.60455633
C        4.56466763      -1.41563474       1.42059308
O        4.96778269      -0.95821964       0.35374918
N        5.36751472      -1.73730426       2.49241813
C        6.73914622      -1.60886635       2.62483369
C        7.56656674      -1.18101551       1.66054587
C        8.99528282      -1.06212656       1.89885719
C        9.87321107      -0.62567791       0.90265904
C       11.23687833      -0.51651725       1.18374749
Br      12.42356219       0.07120373      -0.16680270
C       11.73368247      -0.83559009       2.44848251
C       10.85983555      -1.27387787       3.44379565
C        9.50143922      -1.38378395       3.15366165
O        8.65218735      -1.83752150       4.17720993
C        7.28557549      -1.97987393       3.96955143
O        6.53561821      -2.38333429       4.85737614
H        2.28502146      -3.00900113       5.10863134
H        3.62790440      -4.15957105       5.10848796
H        2.12906541      -4.61054091       4.28583678
H        0.60844106      -3.25186620       3.27575754
H       -0.78522082      -1.84740596       1.85144527
H        2.71581070      -0.10659194       0.06904387
H        4.90197430      -2.12473386       3.31694767
H        7.21369114      -0.90667911       0.67394014
H        9.49794675      -0.37162033      -0.08608551
H       12.79526259      -0.74691997       2.66582850
H       11.23415849      -1.52608465       4.43169698
