166
Properties=species:S:1:pos:R:3 pbc="F F F"
C        5.54307433       3.85131699      -4.41649166
O        4.20796239       4.26390184      -4.13431905
C        3.44104542       3.42241953      -3.37085433
C        3.71682060       2.05616864      -3.22151615
C        2.89855880       1.24473490      -2.42941576
C        1.79142202       1.79142202      -1.79142202
C        1.48388802       3.13786997      -1.95120311
C        2.30175674       3.96502501      -2.74295959
C        1.88500317       5.39991798      -2.84568638
O        0.71105882       5.68160917      -2.61679559
N        2.87079495       6.31530800      -3.14084624
C        2.78480023       7.69413197      -3.22362613
C        1.65583337       8.40274056      -3.07926626
C        1.66670217       9.85344553      -3.16583094
C        0.49802429      10.60728937      -3.02594643
C        0.56145402      12.00020400      -3.10519713
C        1.77838712      12.64916058      -3.31991943
C        2.94592816      11.89889376      -3.46239921
C        2.87304749      10.50952218      -3.38602723
O        4.06722380       9.78574592      -3.54366114
C        4.08137047       8.39740816      -3.48593430
O        5.12071684       7.75520886      -3.63011501
H        6.07060706       3.55955538      -3.50220356
H        6.07084388       4.70750154      -4.84733007
H        5.55448398       3.04473773      -5.15593346
H        4.55895477       1.58565244      -3.72116967
H        3.13359106       0.18844823      -2.32130319
H        0.61081989       3.55696839      -1.45337030
H        3.80548594       5.94250713      -3.32537484
H        0.69740679       7.93393824      -2.89267743
H       -0.45596926      10.11341309      -2.85574980
H        1.82571615      13.73378728      -3.37821971
H        3.89892571      12.39197351      -3.63075296
C       -0.64388201      12.77521263      -2.96332853
C       -1.65335093      13.42428235      -2.84451358
Br      -3.28557679      14.47377320      -2.65239986
C       -5.40280337      -3.69143442      -4.71664520
O       -4.23003018      -4.24838692      -4.12776617
C       -3.44858369      -3.40981949      -3.37591610
C       -3.48316481      -2.01375501      -3.49758557
C       -2.66207195      -1.20702099      -2.70361651
C       -1.79142202      -1.79142202      -1.79142202
C       -1.72069182      -3.17523619      -1.67703311
C       -2.54440658      -3.99721074      -2.46812402
C       -2.39333565      -5.47324470      -2.26402718
O       -1.34390207      -5.88794707      -1.77761444
N       -3.47446983      -6.26122713      -2.59125223
C       -3.63671812      -7.62716915      -2.43867105
C       -2.69768937      -8.46459473      -1.97555609
C       -2.96674438      -9.88571776      -1.83351650
C       -1.99699389     -10.77408409      -1.36018212
C       -2.30732091     -12.12954090      -1.22999334
C       -3.57523328     -12.60777384      -1.56446002
C       -4.54414458     -11.72354125      -2.03953530
C       -4.22486614     -10.37354517      -2.17018559
O       -5.22219008      -9.51365392      -2.66078685
C       -4.98455617      -8.15447936      -2.82567739
O       -5.84917469      -7.39549604      -3.26136998
H       -6.00326793      -3.15412919      -3.97496889
H       -6.00741169      -4.51945062      -5.09881318
H       -5.14634858      -3.04629146      -5.56251513
H       -4.13290140      -1.51891012      -4.21396535
H       -2.70881238      -0.12563243      -2.80889768
H       -1.03103078      -3.62543024      -0.96469756
H       -4.28180722      -5.78746804      -3.00409265
H       -1.70979455      -8.12568528      -1.68854263
H       -1.00611755     -10.41324119      -1.09383490
H       -3.81541355     -13.66291752      -1.45939207
H       -5.53419545     -12.08342270      -2.30403403
C       -1.30630884     -13.04381794      -0.74453237
C       -0.46796124     -13.80952496      -0.33795880
Br       0.88757592     -15.04760845       0.31943626
C       -4.74699989       5.38420849       3.67967461
O       -4.12747519       4.23216016       4.24654791
C       -3.37662171       3.44916851       3.40852907
C       -3.52345801       3.45656983       2.01447754
C       -2.72922752       2.63525671       1.20822522
C       -1.79142202       1.79142202       1.79142202
C       -1.65143168       1.74753520       3.17399422
C       -2.44256355       2.57179330       3.99538450
C       -2.20982937       2.45082408       5.46995408
O       -1.69745472       1.41772192       5.89428694
N       -2.54245503       3.53997984       6.24451431
C       -2.36877567       3.72935015       7.60443251
C       -1.87422622       2.81378551       8.44982846
C       -1.71202799       3.11073237       9.86321828
C       -1.20581454       2.16554883      10.75989672
C       -1.05735964       2.50236881      12.10712670
C       -1.40602772       3.77256361      12.56887581
C       -1.91389369       4.71695165      11.67637580
C       -2.06255331       4.37127285      10.33477074
O       -2.58602102       5.34422748       9.46638235
C       -2.77053531       5.07939990       8.11477771
O       -3.23495573       5.92246690       7.34861807
H       -4.02578407       5.98791283       3.11866911
H       -5.12530380       5.99673896       4.50363273
H       -5.59936670       5.10137353       3.05441494
H       -4.25997337       4.08461474       1.52118877
H       -2.85435709       2.66074307       0.12824232
H       -0.91902991       1.07870682       3.62342185
H       -2.97798074       4.33129924       5.76408793
H       -1.57556249       1.82518173       8.12327825
H       -0.92814334       1.17320734      10.41184296
H       -1.28671690       4.03343311      13.61757312
H       -2.18971912       5.70848325      12.02344982
C       -0.53800672       1.52661162      13.03004081
C       -0.10304866       0.70941498      13.80298138
Br       0.60024175      -0.61192288      15.05276090
C        3.66299870      -4.79432006       5.35356422
O        4.24357964      -4.12716124       4.23544239
C        3.40651135      -3.37779445       3.45001347
C        2.01748690      -3.56302184       3.41399665
C        1.21198790      -2.76835659       2.59236497
C        1.79142202      -1.79142202       1.79142202
C        3.17017174      -1.61232000       1.79046936
C        3.99062851      -2.40355638       2.61555646
C        5.46080190      -2.12707788       2.54272774
O        5.89871226      -1.57426158       1.53648975
N        6.21423626      -2.46893333       3.64377959
C        7.56299013      -2.26337974       3.87618846
C        8.41891120      -1.72012791       2.99880107
C        9.81846424      -1.52761641       3.33989800
C       10.72611217      -0.97046418       2.43468374
C       12.05884960      -0.79462913       2.81337642
C       12.49519559      -1.16622171       4.08604984
C       11.59179139      -1.72488790       4.99054185
C       10.26492365      -1.90052276       4.60315049
O        9.38526829      -2.47492315       5.53643941
C        8.04720049      -2.68894337       5.22856906
O        7.27159469      -3.19786498       6.03658103
H        3.06547185      -4.10612896       5.96076519
H        4.48017628      -5.16699773       5.97850147
H        3.07007173      -5.65521205       5.02987139
H        1.52813298      -4.33025716       4.00738674
H        0.13567819      -2.92377716       2.58388714
H        3.61693514      -0.84924795       1.15497549
H        5.72474718      -2.93967153       4.40894920
H        8.11133602      -1.40274108       2.00994536
H       10.39774580      -0.67453872       1.44090912
H       13.53254189      -1.02556369       4.37961756
H       11.91914888      -2.01897307       5.98353024
C       12.99318155      -0.22276329       1.87871431
C       13.77568456       0.25617434       1.09593479
Br      15.04092575       1.03057599      -0.16975349
C       -0.00445707       0.01189536      -1.78238275
H       -0.66409135       0.67374010      -2.43557963
H        0.65740317      -0.63156657      -2.45157240
C       -0.90989263      -0.90692880      -0.91072765
C        0.90977584       0.90977584      -0.90977584
C       -0.00465871       1.77757030       0.00794375
H       -0.66225468       2.44313916      -0.64384735
H        0.64322798       2.43503045       0.67728295
C       -1.78241447       0.00034974      -0.00472694
H       -2.45427497      -0.65498947       0.64260836
H       -2.43311707       0.67328779      -0.65473579
C       -0.91132561       0.90220522       0.91563759
C       -0.01476271      -0.02253852       1.78660255
H       -0.67934791      -0.69751639       2.42135241
H        0.63392994       0.61504881       2.47327442
C        0.01484550      -1.77751727      -0.01636693
H        0.67870853      -2.42144646      -0.68295456
H       -0.62264859      -2.45592969       0.64226336
C        1.78714474       0.01002794       0.00389507
H        2.44202412       0.67113390       0.66197326
H        2.45385902      -0.65136977      -0.64189061
C        0.91606151      -0.90478549       0.90901405
