162
Properties=species:S:1:pos:R:3 pbc="F F F"
C        1.79147957       1.79147957      -1.79147957
C        1.20674261       2.73913955      -2.62649385
C        2.01264773       3.54384917      -3.43651723
C        3.41261399       3.40425652      -3.42648100
C        3.98101727       2.44820710      -2.56377658
C        3.17522735       1.64347351      -1.75403948
C        4.32667812       4.26090412      -4.29552430
H        5.25486764       3.72234988      -4.51681586
S        4.82642807       5.74591467      -3.39266750
C        3.72694316       6.79312359      -4.33696897
C        3.34400586       6.03808715      -5.59157252
O        2.74018058       6.61984528      -6.48879144
N        3.73031959       4.68865042      -5.55652004
C        3.53381338       3.74798829      -6.63275792
C        2.89203918       4.09937713      -7.82647280
C        2.70099471       3.17313343      -8.86059216
C        3.15503729       1.86417091      -8.73077254
C        3.80764952       1.46679578      -7.56139545
C        4.32469992       0.06771030      -7.36663389
C        3.98470945       2.41567764      -6.53069968
H        0.12690109       2.86002915      -2.65743414
H        1.52743491       4.27294368      -4.08241432
H        5.06174660       2.32486011      -2.51378274
H        3.63591074       0.90922884      -1.09790703
H        2.82460067       7.01620559      -3.76172538
H        4.23685270       7.72119314      -4.60751319
H        2.50697289       5.09700982      -8.00753439
H        2.19080043       3.49584236      -9.76546234
H        4.80736762      -0.05135233      -6.39058376
H        3.50338928      -0.65429853      -7.41276006
H        5.07257746      -0.17283545      -8.12897319
H        4.49353415       2.06432416      -5.63843286
C        2.92694122       0.96173919      -9.82949415
C        2.73591077       0.20595262     -10.74967349
Br       2.42703068      -1.01609034     -12.23752567
C       -1.79147957      -1.79147957      -1.79147957
C       -2.50775997      -1.22355240      -2.84106364
C       -3.31784640      -2.02906689      -3.64610083
C       -3.42700626      -3.41096122      -3.40538404
C       -2.68252610      -3.96399393      -2.34648092
C       -1.87273504      -3.15857144      -1.54143387
C       -4.30045206      -4.32380495      -4.25884952
H       -4.63170049      -5.18880306      -3.67352982
S       -3.33435874      -5.00162828      -5.62902322
C       -4.11201842      -3.92172620      -6.82329109
C       -5.38423468      -3.39150843      -6.19792242
O       -6.18731316      -2.77160415      -6.88989998
N       -5.47695596      -3.67304897      -4.82548512
C       -6.59974811      -3.32663223      -3.98817925
C       -7.71133010      -2.62962979      -4.47692923
C       -8.79162598      -2.29280965      -3.65028467
C       -8.79246859      -2.65169452      -2.30581763
C       -7.70925293      -3.35413326      -1.77245456
C       -7.65693975      -3.77334027      -0.32876409
C       -6.62963653      -3.67856415      -2.62288609
H       -2.44567419      -0.15700409      -3.04168609
H       -3.86962165      -1.55673637      -4.45643489
H       -2.72591284      -5.03261000      -2.14186660
H       -1.30924359      -3.60684956      -0.72695346
H       -3.45362399      -3.08342322      -7.06548443
H       -4.35370978      -4.48150131      -7.73034794
H       -7.78930280      -2.31137705      -5.51083724
H       -9.62831962      -1.74527424      -4.07851128
H       -6.73261348      -4.31451061      -0.09947496
H       -7.69098332      -2.89710222       0.32623473
H       -8.49060004      -4.44317645      -0.09493871
H       -5.80743749      -4.22159592      -2.16725776
C       -9.93239469      -2.27522059      -1.51055928
C      -10.88708281      -1.95992367      -0.84453040
Br     -12.43073274      -1.45011521       0.23238195
C       -1.79147957       1.79147957       1.79147957
C       -2.84620673       2.50125455       1.22491474
C       -3.65126232       3.31134282       2.03040898
C       -3.40544871       3.42702836       3.41087444
C       -2.34134887       2.68903148       3.96262060
C       -1.53628423       1.87923898       3.15721713
C       -4.25875657       4.30071285       4.32363712
H       -3.67131183       4.63778430       5.18493725
S       -5.62230201       3.33187039       5.01083785
C       -6.82401023       4.10038281       3.93264268
C       -6.20589825       5.37295145       3.39481584
O       -6.90358242       6.17074756       2.77448732
N       -4.83272761       5.47230666       3.67045579
C       -4.00134350       6.59704311       3.31617298
C       -4.49735426       7.70384216       2.61669270
C       -3.67642176       8.78607891       2.27221963
C       -2.33054103       8.79375613       2.62568358
C       -1.79001029       7.71552369       3.33030677
C       -0.34445192       7.67068658       3.74390561
C       -2.63478177       6.63382118       3.66248382
H       -3.05085188       2.43407240       0.15944009
H       -4.46569791       3.85795927       1.55913573
H       -2.13262834       2.73753922       5.03022188
H       -0.71775162       1.32082634       3.60446865
H       -7.06691030       3.43765370       3.09796764
H       -7.72978112       4.34068703       4.49509088
H       -5.53283533       7.77638758       2.30229418
H       -4.11020442       9.61883832       1.72306239
H       -0.10927632       6.74947278       4.28784995
H        0.30688640       7.70382850       2.86490871
H       -0.11130055       8.50796706       4.40944759
H       -2.17367424       5.81564786       4.20696908
C       -1.54139324       9.93533670       2.24144462
C       -0.88048196      10.89141042       1.91964449
Br       0.18815567      12.43730077       1.39932090
C        1.79147957      -1.79147957       1.79147957
C        1.28489585      -2.98130680       2.30617337
C        2.08983276      -3.78693455       3.11624681
C        3.40843615      -3.40751374       3.42740163
C        3.90234065      -2.20658750       2.88407280
C        3.09745975      -1.40097734       2.07430325
C        4.31815278      -4.25681953       4.30813423
H        5.05834295      -3.62460068       4.81108974
S        5.27012189      -5.40702183       3.28786652
C        4.27058978      -6.80510547       3.78134047
C        3.52454190      -6.41119974       5.03792389
O        2.91128694      -7.26560832       5.67192203
N        3.61629952      -5.03887296       5.32031757
C        3.04119524      -4.39628893       6.47707543
C        2.29116740      -5.09853608       7.42818563
C        1.73168240      -4.45994843       8.54308947
C        1.91360515      -3.09471437       8.74166123
C        2.66008956      -2.35151366       7.82423753
C        2.89479302      -0.87490693       7.98934417
C        3.21032617      -3.01502685       6.70573375
H        0.26658478      -3.29159315       2.08618645
H        1.66549737      -4.70921305       3.50808248
H        4.92429277      -1.88974722       3.08634944
H        3.49888957      -0.47583573       1.66832131
H        3.54987515      -7.05444595       2.99821055
H        4.91063851      -7.66647703       3.98844349
H        2.10073441      -6.16322598       7.34755671
H        1.15227198      -5.05057975       9.24925340
H        3.50322769      -0.46983439       7.17353697
H        1.94392816      -0.33286152       7.98506113
H        3.43076913      -0.67522121       8.92272485
H        3.78016323      -2.39975403       6.01637391
C        1.31231456      -2.49914600       9.90671399
C        0.80873370      -2.00035749      10.88244569
Br      -0.00551397      -1.19385866      12.46012131
C       -0.00445707       0.01189536      -1.78238275
H       -0.66409135       0.67374010      -2.43557963
H        0.65740317      -0.63156657      -2.45157240
C       -0.90989263      -0.90692880      -0.91072765
C        0.90977584       0.90977584      -0.90977584
C       -0.00465871       1.77757030       0.00794375
H       -0.66225468       2.44313916      -0.64384735
H        0.64322798       2.43503045       0.67728295
C       -1.78241447       0.00034974      -0.00472694
H       -2.45427497      -0.65498947       0.64260836
H       -2.43311707       0.67328779      -0.65473579
C       -0.91132561       0.90220522       0.91563759
C       -0.01476271      -0.02253852       1.78660255
H       -0.67934791      -0.69751639       2.42135241
H        0.63392994       0.61504881       2.47327442
C        0.01484550      -1.77751727      -0.01636693
H        0.67870853      -2.42144646      -0.68295456
H       -0.62264859      -2.45592969       0.64226336
C        1.78714474       0.01002794       0.00389507
H        2.44202412       0.67113390       0.66197326
H        2.45385902      -0.65136977      -0.64189061
C        0.91606151      -0.90478549       0.90901405
