141
Properties=species:S:1:pos:R:3 pbc="F F F"
C        0.00000000       0.00000000       0.00000000
C        0.88157555       0.88157555      -0.88157555
C        0.29683859       1.82923553      -1.71658983
C        1.10274370       2.63394514      -2.52661320
C        2.50270997       2.49435250      -2.51657698
C        3.07111324       1.53830308      -1.65387255
C        2.26532332       0.73356949      -0.84413546
C        3.41677410       3.35100010      -3.38562027
H        4.34496361       2.81244585      -3.60691183
S        3.91652405       4.83601065      -2.48276348
C        2.81703914       5.88321957      -3.42706494
C        2.43410184       5.12818313      -4.68166849
O        1.83027655       5.70994126      -5.57888742
N        2.82041557       3.77874640      -4.64661602
C        2.62390936       2.83808427      -5.72285390
C        1.98213516       3.18947311      -6.91656878
C        1.79109069       2.26322940      -7.95068814
C        2.24513327       0.95426689      -7.82086852
C        2.89774550       0.55689176      -6.65149143
C        3.41479590      -0.84219372      -6.45672987
C        3.07480542       1.50577362      -5.62079565
H       -0.78300293       1.95012512      -1.74753011
H        0.61753088       3.36303965      -3.17251029
H        4.15184257       1.41495608      -1.60387871
H        2.72600672      -0.00067518      -0.18800300
H        1.91469665       6.10630156      -2.85182136
H        3.32694868       6.81128911      -3.69760916
H        1.59706887       4.18710579      -7.09763036
H        1.28089640       2.58593834      -8.85555832
H        3.89746360      -0.96125636      -5.48067973
H        2.59348526      -1.56420256      -6.50285604
H        4.16267344      -1.08273948      -7.21906916
H        3.58363013       1.15442014      -4.72852883
C        2.01703720       0.05183516      -8.91959012
C        1.82600674      -0.70395141      -9.83976947
Br       1.51712665      -1.92599437     -11.32762164
C       -0.88157555      -0.88157555      -0.88157555
C       -0.89103633      -0.69130827      -2.26031934
C       -1.70048228      -1.49522197      -3.06759779
C       -2.51602834      -2.49359627      -2.50401483
C       -2.47897237      -2.67560500      -1.10871150
C       -1.66981755      -1.87167401      -0.30153671
C       -3.41409304      -3.39024642      -3.34905502
H       -4.27316595      -3.73079789      -2.76035746
S       -2.52164741      -4.88960751      -3.82404325
C       -2.29662213      -4.32503866      -5.50566285
C       -3.28835434      -3.20766536      -5.74793376
O       -3.45275445      -2.77931995      -6.88703082
N       -3.91101209      -2.76480392      -4.56996197
C       -4.92951377      -1.74455929      -4.51077446
C       -5.37423144      -1.06354461      -5.65040100
C       -6.35885020      -0.06907021      -5.57708782
C       -6.93350297       0.26886094      -4.35562664
C       -6.52827526      -0.38705294      -3.19080048
C       -7.11722811      -0.06822451      -1.84387942
C       -5.53121212      -1.38229338      -3.28786919
H       -0.27549626       0.07889839      -2.71805444
H       -1.69077362      -1.32064196      -4.14166525
H       -3.08119768      -3.45126449      -0.63821519
H       -1.65970622      -2.02789258       0.77426426
H       -1.28233595      -3.94295267      -5.64753095
H       -2.48839270      -5.14452811      -6.20292614
H       -4.97749224      -1.26474766      -6.63956512
H       -6.66462417       0.43400369      -6.49177259
H       -6.67599867      -0.68634857      -1.05453974
H       -6.92860942       0.97735218      -1.58088151
H       -8.19463586      -0.26196313      -1.84240414
H       -5.24356293      -1.86433336      -2.35868281
C       -7.93935479       1.29930261      -4.34841030
C       -8.78175569       2.16229751      -4.34236662
Br     -10.14384670       3.55768727      -4.33259449
C       -0.88157555       0.88157555       0.88157555
C       -0.79360879       2.26706136       0.78199379
C       -1.59739050       3.07473177       1.59117978
C       -2.49282251       2.50562068       2.51519625
C       -2.57324799       1.10218761       2.58785328
C       -1.76943671       0.29464304       1.77894852
C       -3.38555797       3.35102965       3.41680685
H       -3.62167989       2.80544047       4.33720094
S       -4.97381842       3.65435236       2.60712740
C       -4.55201139       5.34958930       2.22572295
C       -3.38999976       5.74089987       3.11305383
O       -3.03678115       6.91581629       3.16650779
N       -2.81940948       4.64550117       3.78086733
C       -1.72988922       4.73218935       4.72276896
C       -1.10603497       5.94576135       5.03638072
C       -0.04344095       6.01411584       5.94745143
C        0.42266783       4.86467565       6.57826085
C       -0.17163148       3.63068195       6.30381526
C        0.28573643       2.35616657       6.95890190
C       -1.23760144       3.58498821       5.37878504
H       -0.10357797       2.72995123       0.08112310
H       -1.50381525       4.15460282       1.49466276
H       -3.26867653       0.62524160       3.27675923
H       -1.84598081      -0.78715452       1.85450824
H       -4.25220388       5.44201529       1.17860041
H       -5.40567643       6.00104932       2.42912120
H       -1.40668511       6.88666594       4.58845397
H        0.41045523       6.98137000       6.15147830
H       -0.30121770       1.49567631       6.61999297
H        1.33242832       2.15254755       6.71201951
H        0.16727385       2.42105055       8.04522642
H       -1.66825093       2.60609537       5.19223280
C        1.51761803       5.00283538       7.50324514
C        2.43463883       5.11854416       8.27791948
Br       3.91738390       5.30563546       9.53050237
C        0.88157555      -0.88157555       0.88157555
C        1.39636246      -2.07134671       0.37495477
C        2.20022799      -2.88071202       1.18236203
C        2.49182639      -2.51306544       2.50874762
C        1.97063856      -1.29880889       2.99384142
C        1.16672052      -0.48967575       2.18663201
C        3.36284436      -3.36822006       3.42233005
H        3.09116750      -3.20237964       4.47077415
S        5.09315382      -2.86239827       3.27974608
C        5.52154847      -4.29966383       2.30611135
C        4.42334646      -5.32349015       2.49711685
O        4.57915257      -6.46580104       2.07415162
N        3.29584434      -4.80001117       3.14992247
C        2.12165873      -5.56080478       3.50238401
C        1.98550349      -6.91765555       3.18501800
C        0.83584264      -7.64248126       3.52668433
C       -0.21244966      -7.02793942       4.20477890
C       -0.12118746      -5.67744504       4.54987110
C       -1.21949507      -4.96149481       5.28733230
C        1.04450273      -4.96572678       4.19114518
H        1.17844915      -2.38038462      -0.64418147
H        2.58493201      -3.80728423       0.76086458
H        2.19084810      -0.97117186       4.00865740
H        0.77221988       0.44237834       2.58349300
H        5.58854508      -4.03717355       1.24710094
H        6.47323793      -4.71274654       2.64986248
H        2.75422488      -7.47098202       2.65659812
H        0.77777588      -8.69322853       3.25138864
H       -0.96477737      -3.91189754       5.46976680
H       -2.14491239      -4.97403139       4.70301974
H       -1.39119241      -5.42713703       6.26305851
H        1.07275517      -3.91840528       4.47541864
C       -1.36572745      -7.82815492       4.52603501
C       -2.33159760      -8.49833541       4.79508700
Br      -3.89332795      -9.58196056       5.23012131
