133
Properties=species:S:1:pos:R:3 pbc="F F F"
C        0.00000000       0.00000000       0.00000000
C        0.88157555       0.88157555      -0.88157555
C        0.29683859       1.82923553      -1.71658983
C        1.10274370       2.63394514      -2.52661320
C        2.50270997       2.49435250      -2.51657698
C        3.07111324       1.53830308      -1.65387255
C        2.26532332       0.73356949      -0.84413546
C        3.41677410       3.35100010      -3.38562027
H        4.34496361       2.81244585      -3.60691183
S        3.91652405       4.83601065      -2.48276348
C        2.81703914       5.88321957      -3.42706494
C        2.43410184       5.12818313      -4.68166849
O        1.83027655       5.70994126      -5.57888742
N        2.82041557       3.77874640      -4.64661602
C        2.62390936       2.83808427      -5.72285390
C        1.98213516       3.18947311      -6.91656878
C        1.79109069       2.26322940      -7.95068814
C        2.24513327       0.95426689      -7.82086852
Br       1.94459288      -0.23478115      -9.26854897
C        2.89774550       0.55689176      -6.65149143
C        3.41479590      -0.84219372      -6.45672987
C        3.07480542       1.50577362      -5.62079565
H       -0.78300293       1.95012512      -1.74753011
H        0.61753088       3.36303965      -3.17251029
H        4.15184257       1.41495608      -1.60387871
H        2.72600672      -0.00067518      -0.18800300
H        1.91469665       6.10630156      -2.85182136
H        3.32694868       6.81128911      -3.69760916
H        1.59706887       4.18710579      -7.09763036
H        1.28089640       2.58593834      -8.85555832
H        3.89746360      -0.96125636      -5.48067973
H        2.59348526      -1.56420256      -6.50285604
H        4.16267344      -1.08273948      -7.21906916
H        3.58363013       1.15442014      -4.72852883
C       -0.88157555      -0.88157555      -0.88157555
C       -1.87419796      -1.66645336      -0.30201263
C       -2.67904387      -2.47651039      -1.10774778
C       -2.49481597      -2.51682789      -2.50199559
C       -1.49342341      -1.70401953      -3.06584594
C       -0.68855927      -0.89425301      -2.26021599
C       -3.35004699      -3.38774120      -3.41560628
H       -2.78983941      -3.65634156      -4.31814033
S       -4.78803302      -2.45506251      -3.99220264
C       -5.90002885      -3.32907191      -2.89822289
C       -5.19908229      -4.59378340      -2.45108777
O       -5.82883030      -5.45179312      -1.83848181
N       -3.83763644      -4.61428358      -2.79385796
C       -2.93948875      -5.71282318      -2.53253559
C       -3.35003593      -6.87308996      -1.86505115
C       -2.46473698      -7.92927625      -1.61099501
C       -1.13846481      -7.85604405      -2.02575981
Br      -0.00767461      -9.33011405      -1.64057204
C       -0.68243328      -6.72190527      -2.70179013
C        0.73799826      -6.58872671      -3.17860359
C       -1.59090311      -5.66796159      -2.94251000
H       -2.03026327      -1.65811026       0.77372122
H       -3.44396659      -3.08267185      -0.62644239
H       -1.33425022      -1.69343607      -4.14299107
H        0.08106504      -0.27722597      -2.71717361
H       -6.13266472      -2.71775296      -2.02240189
H       -6.81981270      -3.58658824      -3.42944601
H       -4.36479311      -7.00965806      -1.50735385
H       -2.83298378      -8.80622511      -1.08318417
H        0.90427130      -5.63330320      -3.68785508
H        1.43166362      -6.63079566      -2.33300669
H        0.97703945      -7.38243528      -3.89360729
H       -1.19449843      -4.80446754      -3.46761312
C       -0.88157555       0.88157555       0.88157555
C       -0.30039121       1.86282462       1.67944812
C       -1.10616968       2.66763491       2.48949746
C       -2.50217834       2.49469400       2.51676710
C       -3.06749108       1.50477519       1.69102262
C       -2.26182037       0.69994515       0.88126275
C       -3.41591558       3.35028156       3.38719733
H       -4.32524897       2.79540849       3.64366384
S       -3.97283521       4.80066945       2.46179351
C       -2.87702584       5.89626527       3.35403253
C       -2.44623751       5.18120259       4.61651336
O       -1.83561724       5.79872332       5.48476467
N       -2.80039535       3.82253466       4.62284798
C       -2.55565176       2.91320327       5.71599249
C       -1.89448290       3.30858584       6.88510831
C       -1.65654636       2.41251248       7.93594939
C       -2.08162313       1.09038905       7.84825649
Br      -1.71806975      -0.05570054       9.31599149
C       -2.75193034       0.64938069       6.70481765
C       -3.23932986      -0.76588414       6.55588632
C       -2.97635888       1.56849379       5.65652202
H        0.77662668       2.00999252       1.68128646
H       -0.62362826       3.42349348       3.10595909
H       -4.14578824       1.35466763       1.67022149
H       -2.71996406      -0.06072768       0.25409816
H       -1.99425505       6.12664113       2.75192338
H       -3.40276224       6.81828223       3.61480248
H       -1.52956896       4.31916785       7.03306821
H       -1.13303210       2.76909952       8.82026144
H       -3.74196518      -0.92001791       5.59493970
H       -2.39986844      -1.46688880       6.59915910
H       -3.96286569      -1.00550956       7.34164699
H       -3.49751011       1.18361717       4.78545181
C        0.88157555      -0.88157555       0.88157555
C        1.37437824      -0.38391826       2.08436744
C        2.18444198      -1.18879837       2.89006170
C        2.51750627      -2.49827732       2.49785586
C        1.99605096      -2.98348018       1.28375774
C        1.18629157      -2.17865242       0.47808429
C        3.39901720      -3.40758151       3.34679575
H        3.91958495      -4.13300853       2.71172782
S        2.37653884      -4.38737505       4.47138428
C        2.83906484      -3.39982415       5.88843465
C        4.09080666      -2.63270129       5.52044551
O        4.70580512      -2.02251234       6.39078776
N        4.39191535      -2.70302808       4.15083456
C        5.54924956      -2.10487316       3.53072480
C        6.48148174      -1.35190001       4.25479529
C        7.59712032      -0.76994953       3.63793839
C        7.81549966      -0.93159174       2.27317727
Br       9.35009522      -0.10962626       1.51863922
C        6.91742683      -1.68005952       1.50864233
C        7.10445727      -1.89345762       0.03141716
C        5.79774980      -2.25313254       2.15049236
H        1.13724686       0.62738231       2.40478774
H        2.55889954      -0.77147864       3.82270264
H        2.21560614      -3.99856296       0.95650826
H        0.79742964      -2.57321438      -0.45730948
H        2.04352435      -2.69249078       6.13680444
H        3.04340588      -4.04828714       6.74415394
H        6.38476352      -1.17634058       5.32070092
H        8.28808906      -0.18925413       4.24504987
H        6.30186397      -2.50698314      -0.39196012
H        7.09478232      -0.93577497      -0.49841855
H        8.04719162      -2.41480334      -0.16299184
H        5.12377370      -2.82372139       1.51908401
