182
Properties=species:S:1:pos:R:3 pbc="F F F"
C        4.81609736       0.54718174      -9.94224613
S        3.07766279       1.00714327      -9.75678350
C        3.04822281       1.37966885      -8.02158418
N        1.86320317       1.24102071      -7.38408432
N        1.76772237       1.53371394      -6.04923690
C        2.86276314       1.97595325      -5.40153882
C        4.03867938       2.10114420      -6.11855192
N        4.17530005       1.79983489      -7.42603725
O        5.19693555       2.43061228      -5.46515258
C        5.19881887       3.83021879      -5.17807681
H        4.99585960       4.39015041      -6.09934239
N        4.23166421       4.26628798      -4.15975461
C        3.43601948       3.39593620      -3.41666551
C        3.24762844       3.68527190      -2.05231066
C        2.44233651       2.88557827      -1.24064970
C        1.79130334       1.79130334      -1.79130334
C        1.93476724       1.49752600      -3.14502023
C        2.75426607       2.28999289      -3.97679504
C        6.59834595       4.15068361      -4.66201538
C        7.07007602       3.50757232      -3.49659585
C        8.33044638       3.79957519      -2.98506078
Br       8.93048429       2.93620649      -1.41501895
C        9.14333372       4.73300602      -3.61698581
C        8.69587268       5.36819306      -4.77863136
C        7.43639648       5.07295801      -5.31389735
O        6.93591219       5.67323066      -6.43802614
C        7.89627340       6.12002578      -7.39122158
H        4.98905931       0.22318727     -10.97308320
H        5.07003998      -0.28136655      -9.27511963
H        5.47192703       1.39823071      -9.73927160
H        4.59252386       5.05482635      -3.63035524
H        3.73975050       4.54507492      -1.60232318
H        2.32864370       3.13101223      -0.18807223
H        1.40529542       0.64413694      -3.56652122
H        6.43773669       2.77642690      -2.99478702
H       10.12402769       4.97620406      -3.21518930
H        9.34905106       6.10639958      -5.23658029
H        7.36511193       6.33421524      -8.32383093
H        8.64310600       5.34650844      -7.60279970
H        8.37245302       7.04735812      -7.05819662
C       -2.32789831     -10.53318912      -2.44443781
S       -3.08682741      -9.75460692      -1.00015524
C       -2.93696416      -8.04800792      -1.46450377
N       -2.88503399      -7.14140126      -0.46187295
N       -2.79155089      -5.80607939      -0.75304294
C       -2.77332782      -5.42277955      -2.04414783
C       -2.83780116      -6.40375843      -3.01681591
N       -2.90622848      -7.72743956      -2.76750415
O       -2.69894153      -6.05842186      -4.33533702
C       -3.91847089      -5.48215725      -4.80648633
H       -4.75190150      -6.15728202      -4.57616888
N       -4.24304802      -4.15705098      -4.25760781
C       -3.39308408      -3.42686260      -3.42867452
C       -3.30846315      -2.03786252      -3.63888533
C       -2.50653677      -1.22540225      -2.83662546
C       -1.79130334      -1.79130334      -1.79130334
C       -1.87863854      -3.15835070      -1.54032424
C       -2.67652762      -3.99525779      -2.34926859
C       -3.75770411      -5.33666292      -6.31667791
C       -2.71657810      -4.53054411      -6.82712198
C       -2.56139559      -4.35520040      -8.19848634
Br      -1.16946133      -3.25824854      -8.85399986
C       -3.43404109      -4.97293298      -9.08635148
C       -4.46132729      -5.78432860      -8.59704121
C       -4.62018492      -5.98274275      -7.22032417
O       -5.61580659      -6.75154895      -6.67981345
C       -6.09589737      -7.81880778      -7.49281560
H       -2.28693337     -11.61483346      -2.28356295
H       -1.30678367     -10.16888653      -2.58812287
H       -2.91643163     -10.34619736      -3.34680036
H       -4.74393670      -3.59439495      -4.93937381
H       -3.86971144      -1.57145768      -4.44597948
H       -2.45494049      -0.15807696      -3.03471071
H       -1.32336031      -3.58598066      -0.70661260
H       -2.03009460      -4.04159442      -6.13726158
H       -3.32708914      -4.82945051     -10.15888141
H       -5.13705701      -6.23692163      -9.31805230
H       -6.68326859      -8.48576755      -6.85412196
H       -5.27186634      -8.40346332      -7.91708448
H       -6.75747045      -7.44175220      -8.27878511
C      -10.51038975       1.96311127       2.83202421
S       -9.60024216       0.61701040       3.62433701
C       -7.93759349       1.17034696       3.34153540
N       -6.97491596       0.22128991       3.29210233
N       -5.66809596       0.58383317       3.09874408
C       -5.36766729       1.89153852       2.98104940
C       -6.40184364       2.80716483       3.04936703
N       -7.70114060       2.48544844       3.21458315
O       -6.14801675       4.13244876       2.81223489
C       -5.53172746       4.71158819       3.96379881
H       -6.14119089       4.49444538       4.84971613
N       -4.15827265       4.26259464       4.23683952
C       -3.42895513       3.42656444       3.39310162
C       -2.06309271       3.71214295       3.20997535
C       -1.25065025       2.91050167       2.40741256
C       -1.79130334       1.79130334       1.79130334
C       -3.13259569       1.46656151       1.97815627
C       -3.97004828       2.27317859       2.77782713
C       -5.49023035       6.21476385       3.70605074
C       -4.77986935       6.70575103       2.58862382
C       -4.69965992       8.07270517       2.34271725
Br      -3.72912524       8.70343030       0.84915419
C       -5.31927401       8.97545462       3.19859692
C       -6.03701965       8.50435274       4.30132471
C       -6.13966630       7.13094227       4.55264328
O       -6.81364600       6.60935180       5.62417118
C       -7.89948491       7.38672144       6.12131440
H      -11.58045493       1.73688123       2.86799362
H      -10.21621509       2.06403485       1.78354313
H      -10.34578142       2.90977660       3.35387133
H       -3.61077596       5.00603081       4.66089869
H       -1.61576142       4.57856574       3.69282144
H       -0.20259369       3.16720266       2.27793180
H       -3.53928672       0.57626304       1.50040382
H       -4.28998580       6.00432583       1.91463897
H       -5.24937350      10.04580503       3.02024252
H       -6.49324978       9.23827567       4.96050548
H       -8.48980419       6.74785438       6.78549952
H       -8.55671391       7.72385675       5.31184349
H       -7.53398024       8.23310773       6.71091979
C        7.03211377      -8.53370284      -0.26029137
S        7.62081220      -6.86906904      -0.64829167
C        6.37097333      -5.90957907       0.16892344
N        6.13506689      -4.66880434      -0.31556302
N        5.19845027      -3.86859926       0.28362368
C        4.54232002      -4.33397967       1.36395551
C        4.84036273      -5.60898633       1.80902644
N        5.73785911      -6.43284420       1.23046887
O        4.10698472      -6.15794660       2.82776908
C        4.53265528      -5.60150339       4.07295579
H        5.62143378      -5.70171523       4.16220339
N        4.18859909      -4.18712764       4.28198007
C        3.40100180      -3.43892343       3.40869596
C        2.46638909      -2.54888165       3.96994027
C        1.65848342      -1.73888203       3.17119903
C        1.79130334      -1.79130334       1.79130334
C        2.72855184      -2.64047524       1.20828639
C        3.54538659      -3.47394339       2.00172402
C        3.83589127      -6.41788550       5.15726816
C        2.42468992      -6.44929395       5.20026032
C        1.76011750      -7.16129009       6.19367475
Br      -0.12891295      -7.17334871       6.23727397
C        2.48047470      -7.85202909       7.16082176
C        3.87748130      -7.84129500       7.12392080
C        4.55988184      -7.14226622       6.12110379
O        5.92527969      -7.08040389       6.04148541
C        6.63617448      -8.19216505       6.57918122
H        7.67905339      -9.26327044      -0.75699405
H        6.01081246      -8.67714628      -0.62416567
H        7.07011009      -8.72343525       0.81588401
H        4.01584063      -3.99690636       5.26495847
H        2.35355031      -2.48341908       5.05017920
H        0.93844094      -1.07171225       3.63757497
H        2.83212585      -2.65959994       0.12422779
H        1.85347132      -5.90863559       4.44684369
H        1.96783444      -8.39942498       7.94816164
H        4.40948588      -8.37626436       7.90628069
H        7.66930782      -8.13047808       6.22337220
H        6.21927390      -9.14343471       6.22970553
H        6.65691640      -8.14862519       7.67246617
C       -0.00445707       0.01189536      -1.78238275
H       -0.66409135       0.67374010      -2.43557963
H        0.65740317      -0.63156657      -2.45157240
C       -0.90989263      -0.90692880      -0.91072765
C        0.90977584       0.90977584      -0.90977584
C       -0.00465871       1.77757030       0.00794375
H       -0.66225468       2.44313916      -0.64384735
H        0.64322798       2.43503045       0.67728295
C       -1.78241447       0.00034974      -0.00472694
H       -2.45427497      -0.65498947       0.64260836
H       -2.43311707       0.67328779      -0.65473579
C       -0.91132561       0.90220522       0.91563759
C       -0.01476271      -0.02253852       1.78660255
H       -0.67934791      -0.69751639       2.42135241
H        0.63392994       0.61504881       2.47327442
C        0.01484550      -1.77751727      -0.01636693
H        0.67870853      -2.42144646      -0.68295456
H       -0.62264859      -2.45592969       0.64226336
C        1.78714474       0.01002794       0.00389507
H        2.44202412       0.67113390       0.66197326
H        2.45385902      -0.65136977      -0.64189061
C        0.91606151      -0.90478549       0.90901405
