169
Properties=species:S:1:pos:R:3 pbc="F F F"
C        0.00000000       0.00000000       0.00000000
C        3.90619334      -0.36272228      -9.03234210
S        2.16775877       0.09723925      -8.84687948
C        2.13831879       0.46976483      -7.11168015
N        0.95329915       0.33111669      -6.47418029
N        0.85781835       0.62380992      -5.13933287
C        1.95285912       1.06604922      -4.49163479
C        3.12877536       1.19124018      -5.20864789
N        3.26539602       0.88993086      -6.51613322
O        4.28703152       1.52070825      -4.55524856
C        4.28891485       2.92031476      -4.26817278
H        4.08595557       3.48024639      -5.18943837
N        3.32176019       3.35638396      -3.24985059
C        2.52611546       2.48603217      -2.50676149
C        2.33772441       2.77536788      -1.14240664
C        1.53243249       1.97567424      -0.33074568
C        0.88139931       0.88139931      -0.88139931
C        1.02486322       0.58762198      -2.23511621
C        1.84436205       1.38008886      -3.06689102
C        5.68844193       3.24077959      -3.75211135
C        6.16017200       2.59766830      -2.58669183
C        7.42054235       2.88967116      -2.07515675
C        8.23342970       3.82310199      -2.70708179
C        7.78596866       4.45828903      -3.86872734
C        6.52649246       4.16305399      -4.40399333
O        6.02600816       4.76332663      -5.52812211
C        6.98636937       5.21012175      -6.48131755
H        4.07915528      -0.68671675     -10.06317918
H        4.16013596      -1.19127057      -8.36521561
H        4.56202300       0.48832669      -8.82936758
H        3.68261984       4.14492233      -2.72045122
H        2.82984648       3.63517089      -0.69241915
H        1.41873967       2.22110820       0.72183180
H        0.49539139      -0.26576708      -2.65661719
H        5.52783267       1.86652287      -2.08488299
H        9.21412367       4.06630004      -2.30528528
H        8.43914704       5.19649556      -4.32667627
H        6.45520790       5.42431122      -7.41392691
H        7.73320198       4.43660441      -6.69289568
H        7.46254900       6.13745409      -6.14829260
C        7.87781765       2.23171744      -0.87866346
C        8.26078571       1.68068120       0.12339968
Br       8.88001267       0.78970221       1.74365102
C        1.11302503      -7.85490104      -5.83393716
S        1.02936574      -8.09687711      -4.04436613
C        0.36370850      -6.52473823      -3.55873405
N        0.64660367      -6.09886463      -2.30633518
N        0.14502897      -4.90407839      -1.86191172
C       -0.64207797      -4.18414318      -2.68432199
C       -0.89558202      -4.68477080      -3.94831062
N       -0.39997520      -5.84394407      -4.42754084
O       -1.58996368      -3.92255274      -4.85047191
C       -2.98248904      -3.96170287      -4.53321048
H       -3.30536543      -5.00632243      -4.44395247
N       -3.36798713      -3.26069480      -3.29931280
C       -2.49126318      -2.49858561      -2.52906033
C       -2.97412572      -1.29169782      -1.98967539
C       -2.17535175      -0.48156588      -1.18193478
C       -0.88139931      -0.88139931      -0.88139931
C       -0.38613019      -2.08527804      -1.37619317
C       -1.17751754      -2.91045827      -2.20336611
C       -3.69745303      -3.28505216      -5.69882767
C       -3.39971854      -1.93912660      -6.00568698
C       -4.05536046      -1.28573038      -7.04427943
C       -5.01656519      -1.95244868      -7.79459961
C       -5.31285033      -3.28856707      -7.51156763
C       -4.64999821      -3.96379304      -6.47974852
O       -4.90777552      -5.26579979      -6.14388160
C       -5.37778913      -6.10396628      -7.19605327
H        1.57186417      -8.73752608      -6.28995579
H        1.72783488      -6.98397691      -6.07793897
H        0.11408660      -7.73241521      -6.26138866
H       -4.30021716      -2.86533123      -3.38244499
H       -3.98961245      -0.96448464      -2.20333943
H       -2.57624783       0.45029596      -0.79206422
H        0.62642234      -2.39345479      -1.11920905
H       -2.64904537      -1.40955824      -5.42063491
H       -5.54271435      -1.44402207      -8.59897256
H       -6.08294153      -3.77394217      -8.10543516
H       -5.29390707      -7.14150136      -6.85803760
H       -4.76651343      -5.99695048      -8.09923816
H       -6.43306732      -5.90679005      -7.40843832
C       -3.74582314       0.09064684      -7.33302225
C       -3.48658563       1.24336275      -7.57484436
Br      -3.06742051       3.10720690      -7.96585025
C       -0.12734483       9.34470842       3.10375991
S       -0.70995663       8.96738399       1.43453688
C       -0.92693991       7.21181488       1.58100898
N       -0.82952778       6.48441145       0.44465690
N       -1.00849682       5.12687752       0.48558680
C       -1.29968477       4.54562734       1.66523102
C       -1.39159815       5.35224604       2.78481924
N       -1.19825380       6.68700686       2.78619945
O       -1.56515185       4.78024395       4.01759252
C       -2.92857841       4.38062060       4.16820338
H       -3.58342493       5.23097844       3.94123696
N       -3.34969607       3.24754136       3.33075731
C       -2.48459743       2.51019344       2.52411825
C       -2.66521784       1.11533545       2.47494564
C       -1.86491314       0.30326224       1.67067703
C       -0.88139931       0.88139931       0.88139931
C       -0.69910491       2.26204397       0.88645253
C       -1.49286967       3.09594600       1.70252625
C       -3.08568309       3.96726001       5.62838977
C       -2.30438094       2.90541835       6.13473283
C       -2.44505684       2.48643920       7.45387422
C       -3.36141038       3.10981154       8.29239155
C       -4.13251802       4.17072804       7.80973896
C       -3.99068307       4.61360783       6.48924888
O       -4.72812939       5.63540707       5.95392045
C       -5.17808068       6.63079390       6.86893409
H        0.11624336      10.40997826       3.16188280
H        0.77558424       8.77321099       3.33645425
H       -0.90013535       9.13206571       3.84751621
H       -4.05544382       2.68963292       3.80291664
H       -3.43803611       0.64214512       3.07725530
H       -2.02371405      -0.77184005       1.66614208
H        0.06683021       2.70309143       0.24998028
H       -1.58564125       2.41075152       5.48284576
H       -3.48640541       2.77874863       9.32055495
H       -4.85263374       4.62314381       8.48654131
H       -5.51768515       7.49142420       6.28433668
H       -4.36792881       6.97107513       7.52369814
H       -6.02969870       6.26673454       7.45186245
C       -1.64742866       1.39367845       7.94709144
C       -0.97941505       0.47849133       8.36016086
Br       0.10070645      -1.00128885       9.02805917
C        9.32293944      -3.17002427       0.08284945
S        8.96177452      -1.49400029       0.65610269
C        7.20681155      -1.62626236       0.88668987
N        6.48687336      -0.48542429       0.78629849
N        5.13040620      -0.51528968       0.97526526
C        4.54284482      -1.68860156       1.27909676
C        5.34207451      -2.81328676       1.37330216
N        6.67536346      -2.82566804       1.17042861
O        4.76253302      -4.04063317       1.55982215
C        4.37167725      -4.17860249       2.92712265
H        5.22833365      -3.95309033       3.57421634
N        3.24768211      -3.33002219       3.35029043
C        2.50990938      -2.52430065       2.48469909
C        1.11677659      -2.46378742       2.67493492
C        0.30473235      -1.65943421       1.87468585
C        0.88139931      -0.88139931       0.88139931
C        2.26062307      -0.89770498       0.68927335
C        3.09436343      -1.71406678       1.48291172
C        3.94902360      -5.63461108       3.09769819
C        2.87798436      -6.13886628       2.32768148
C        2.45060312      -7.45391419       2.48085296
C        3.07454742      -8.29032439       3.39874167
C        4.14441860      -7.80982471       4.15874172
C        4.59570054      -6.49360870       4.00423054
O        5.62659078      -5.96039485       4.73047128
C        6.61862235      -6.87931478       5.17987155
H       10.38598331      -3.23756289      -0.16792850
H        8.74330048      -3.40504827      -0.81426776
H        9.11055524      -3.90668131       0.86248072
H        2.69150996      -3.79308800       4.06339543
H        0.64487035      -3.05712747       3.45543871
H       -0.76913780      -1.64601652       2.04113736
H        2.70068211      -0.26992325      -0.08436386
H        2.38282771      -5.48859036       1.60782046
H        2.73704659      -9.31515500       3.53350740
H        4.59715804      -8.48470032       4.88046050
H        7.48583769      -6.29851938       5.50908896
H        6.94836400      -7.54229301       4.37204506
H        6.25654791      -7.45349714       6.03825063
C        1.34862265      -7.94493821       1.69463768
C        0.42571401      -8.35617083       1.03618239
Br      -1.06655120      -9.02109920      -0.02848413
