190
Properties=species:S:1:pos:R:3 pbc="F F F"
C        4.81609736       0.54718174      -9.94224613
S        3.07766279       1.00714327      -9.75678350
C        3.04822281       1.37966885      -8.02158418
N        1.86320317       1.24102071      -7.38408432
N        1.76772237       1.53371394      -6.04923690
C        2.86276314       1.97595325      -5.40153882
C        4.03867938       2.10114420      -6.11855192
N        4.17530005       1.79983489      -7.42603725
O        5.19693555       2.43061228      -5.46515258
C        5.19881887       3.83021879      -5.17807681
H        4.99585960       4.39015041      -6.09934239
N        4.23166421       4.26628798      -4.15975461
C        3.43601948       3.39593620      -3.41666551
C        3.24762844       3.68527190      -2.05231066
C        2.44233651       2.88557827      -1.24064970
C        1.79130334       1.79130334      -1.79130334
C        1.93476724       1.49752600      -3.14502023
C        2.75426607       2.28999289      -3.97679504
C        6.59834595       4.15068361      -4.66201538
C        7.07007602       3.50757232      -3.49659585
C        8.33044638       3.79957519      -2.98506078
C        9.14333372       4.73300602      -3.61698581
C        8.69587268       5.36819306      -4.77863136
C        7.43639648       5.07295801      -5.31389735
O        6.93591219       5.67323066      -6.43802614
C        7.89627340       6.12002578      -7.39122158
H        4.98905931       0.22318727     -10.97308320
H        5.07003998      -0.28136655      -9.27511963
H        5.47192703       1.39823071      -9.73927160
H        4.59252386       5.05482635      -3.63035524
H        3.73975050       4.54507492      -1.60232318
H        2.32864370       3.13101223      -0.18807223
H        1.40529542       0.64413694      -3.56652122
H        6.43773669       2.77642690      -2.99478702
H       10.12402769       4.97620406      -3.21518930
H        9.34905106       6.10639958      -5.23658029
H        7.36511193       6.33421524      -8.32383093
H        8.64310600       5.34650844      -7.60279970
H        8.37245302       7.04735812      -7.05819662
C        8.78772167       3.14162147      -1.78856748
C        9.17068973       2.59058523      -0.78650434
Br       9.78991670       1.69960623       0.83374699
C       -1.01387450     -10.24331450      -4.04833624
S       -1.59160719      -9.87445266      -2.37552972
C       -1.81572605      -8.11917598      -2.51457381
N       -1.71676484      -7.39567963      -1.37586374
N       -1.90097905      -6.03868534      -1.41100882
C       -2.19878653      -5.45411394      -2.58735473
C       -2.29188872      -6.25686665      -3.70962013
N       -2.09354420      -7.59087526      -3.71675273
O       -2.47222902      -5.68090084      -4.93957055
C       -3.83770295      -5.28585296      -5.08355855
H       -4.48849482      -6.13951665      -4.85734093
N       -4.25991206      -4.15751788      -4.24027687
C       -3.39455426      -3.41994882      -3.43411811
C       -3.58022052      -2.02597529      -3.37901520
C       -2.77994505      -1.21391712      -2.57470232
C       -1.79130334      -1.79130334      -1.79130334
C       -1.60385028      -3.17122296      -1.80224024
C       -2.39754846      -4.00504073      -2.61846481
C       -4.00185571      -4.86761119      -6.54157805
C       -3.22645568      -3.80094217      -7.04684635
C       -3.37366977      -3.37754925      -8.36386332
C       -4.29082945      -4.00121778      -9.20127832
C       -5.05612780      -5.06683437      -8.71973492
C       -4.90765992      -5.51412828      -7.40146365
O       -5.63924581      -6.54069903      -6.86722413
C       -6.08890212      -7.53433321      -7.78428542
H       -0.76651169     -11.30743381      -4.11138428
H       -0.11397885      -9.66755146      -4.28226276
H       -1.79025308     -10.03079465      -4.78838162
H       -4.96952138      -3.60050375      -4.70768033
H       -4.35707172      -1.55344233      -3.97663456
H       -2.94276048      -0.13944511      -2.56552257
H       -0.83387407      -3.61176762      -1.17031189
H       -2.50712703      -3.30602134      -6.39580224
H       -4.42093713      -3.66677256     -10.22771136
H       -5.77708482      -5.51941644      -9.39552968
H       -6.42307094      -8.39842381      -7.20166335
H       -5.27995090      -7.86910173      -8.44336151
H       -6.94406949      -7.17129917      -8.36263910
C       -2.58201051      -2.27994934      -8.85595077
C       -1.91899588      -1.36070942      -9.26807401
Br      -0.84695730       0.12562379      -9.93444243
C       -3.23594572       1.61699957      10.45257994
S       -1.66205320       2.29844940       9.88108697
C       -1.97077830       2.34491938       8.13377816
N       -0.89374999       2.27638671       7.31817151
N       -1.06167908       2.32935058       5.95964356
C       -2.30629685       2.46971953       5.46423882
C       -3.35969863       2.54124832       6.35742855
N       -3.23434972       2.46851088       7.69831158
O       -4.64578155       2.56132186       5.88559699
C       -4.94990093       3.86661838       5.39059515
H       -4.71341415       4.61123964       6.16069862
N       -4.24917696       4.25202295       4.15650690
C       -3.43163186       3.39354870       3.42344063
C       -3.51333145       3.45220360       2.01967596
C       -2.71005703       2.65117210       1.20733535
C       -1.79130334       1.79130334       1.79130334
C       -1.66682582       1.73333392       3.17715374
C       -2.47944393       2.52885676       4.01275330
C       -6.44724075       3.86589680       5.09790740
C       -6.96707975       2.95394583       4.15321861
C       -8.32340818       2.94797909       3.84369506
C       -9.18652209       3.84452968       4.46227378
C       -8.68936339       4.74433629       5.40899741
C       -7.32963299       4.75139921       5.74221965
O       -6.78038617       5.61861591       6.64816689
C       -7.64724549       6.07918374       7.68109152
H       -3.18452607       1.46565134      11.53515236
H       -3.43308187       0.65058040       9.98013080
H       -4.06071348       2.30409868      10.24461718
H       -4.82666976       4.86398513       3.58705057
H       -4.21906195       4.12764152       1.54044514
H       -2.80789742       2.71308646       0.12674427
H       -0.93043556       1.06465664       3.62086138
H       -6.29632709       2.24975105       3.66287246
H      -10.24541081       3.85471295       4.21529731
H       -9.38843461       5.44407796       5.85951837
H       -7.02675122       6.54113096       8.45527591
H       -8.19686925       5.25173991       8.14380498
H       -8.33183258       6.84418224       7.30199294
C       -8.83129422       2.01813546       2.86848093
C       -9.25664878       1.23939143       2.05173910
Br      -9.94441113      -0.01977182       0.73113663
C       10.14951185      -4.31548070       0.84053268
S        9.84532327      -2.61688503       1.37938127
C        8.09410478      -2.69816627       1.65720479
N        7.40064287      -1.54207180       1.54559354
N        6.04915968      -1.53230999       1.76920354
C        5.44038113      -2.68214549       2.11772858
C        6.21332923      -3.82429097       2.22075530
N        7.54023281      -3.87602489       1.98491448
O        5.60819530      -5.03127253       2.45323258
C        5.24928394      -5.12483603       3.83299449
H        6.12767545      -4.90527388       4.45240307
N        4.15816028      -4.23730144       4.26224509
C        3.41880461      -3.43482724       3.39498934
C        2.03297723      -3.33377068       3.61846310
C        1.22104345      -2.52911689       2.81840414
C        1.79130334      -1.79130334       1.79130334
C        3.16429005      -1.84787064       1.56515278
C        3.99743504      -2.66524872       2.35837024
C        4.79479581      -6.56476522       4.05148391
C        3.69201344      -7.06046020       3.32177056
C        3.23588626      -8.35983425       3.51936183
C        3.86206217      -9.18874030       4.44252307
C        4.96282435      -8.71700654       5.16286620
C        5.44283166      -7.41711315       4.96330704
O        6.50509133      -6.89254320       5.64953445
C        7.48500542      -7.82511030       6.09740502
H       11.20373066      -4.41658961       0.56500950
H        9.54129322      -4.55793645      -0.03543661
H        9.93884431      -5.02666287       1.64392217
H        3.60907323      -4.66789808       5.00073415
H        1.56656936      -3.89503464       4.42554460
H        0.15248107      -2.48392917       3.01131792
H        3.59991098      -1.25119639       0.76484620
H        3.19496789      -6.41591609       2.59806663
H        3.50255804     -10.20085610       4.61200692
H        5.41691125      -9.38499747       5.89012221
H        8.37468165      -7.25873238       6.38974406
H        7.77715071      -8.51638467       5.29887876
H        7.13084071      -8.36810066       6.97906638
C        2.10209778      -8.84191715       2.77389569
C        1.15254994      -9.24566158       2.14956779
Br      -0.38278862      -9.89848218       1.14008238
C       -0.00445707       0.01189536      -1.78238275
H       -0.66409135       0.67374010      -2.43557963
H        0.65740317      -0.63156657      -2.45157240
C       -0.90989263      -0.90692880      -0.91072765
C        0.90977584       0.90977584      -0.90977584
C       -0.00465871       1.77757030       0.00794375
H       -0.66225468       2.44313916      -0.64384735
H        0.64322798       2.43503045       0.67728295
C       -1.78241447       0.00034974      -0.00472694
H       -2.45427497      -0.65498947       0.64260836
H       -2.43311707       0.67328779      -0.65473579
C       -0.91132561       0.90220522       0.91563759
C       -0.01476271      -0.02253852       1.78660255
H       -0.67934791      -0.69751639       2.42135241
H        0.63392994       0.61504881       2.47327442
C        0.01484550      -1.77751727      -0.01636693
H        0.67870853      -2.42144646      -0.68295456
H       -0.62264859      -2.45592969       0.64226336
C        1.78714474       0.01002794       0.00389507
H        2.44202412       0.67113390       0.66197326
H        2.45385902      -0.65136977      -0.64189061
C        0.91606151      -0.90478549       0.90901405
