161
Properties=species:S:1:pos:R:3 pbc="F F F"
C        0.00000000       0.00000000       0.00000000
C        3.90619334      -0.36272228      -9.03234210
S        2.16775877       0.09723925      -8.84687948
C        2.13831879       0.46976483      -7.11168015
N        0.95329915       0.33111669      -6.47418029
N        0.85781835       0.62380992      -5.13933287
C        1.95285912       1.06604922      -4.49163479
C        3.12877536       1.19124018      -5.20864789
N        3.26539602       0.88993086      -6.51613322
O        4.28703152       1.52070825      -4.55524856
C        4.28891485       2.92031476      -4.26817278
H        4.08595557       3.48024639      -5.18943837
N        3.32176019       3.35638396      -3.24985059
C        2.52611546       2.48603217      -2.50676149
C        2.33772441       2.77536788      -1.14240664
C        1.53243249       1.97567424      -0.33074568
C        0.88139931       0.88139931      -0.88139931
C        1.02486322       0.58762198      -2.23511621
C        1.84436205       1.38008886      -3.06689102
C        5.68844193       3.24077959      -3.75211135
C        6.16017200       2.59766830      -2.58669183
C        7.42054235       2.88967116      -2.07515675
Br       8.02058027       2.02630246      -0.50511492
C        8.23342970       3.82310199      -2.70708179
C        7.78596866       4.45828903      -3.86872734
C        6.52649246       4.16305399      -4.40399333
O        6.02600816       4.76332663      -5.52812211
C        6.98636937       5.21012175      -6.48131755
H        4.07915528      -0.68671675     -10.06317918
H        4.16013596      -1.19127057      -8.36521561
H        4.56202300       0.48832669      -8.82936758
H        3.68261984       4.14492233      -2.72045122
H        2.82984648       3.63517089      -0.69241915
H        1.41873967       2.22110820       0.72183180
H        0.49539139      -0.26576708      -2.65661719
H        5.52783267       1.86652287      -2.08488299
H        9.21412367       4.06630004      -2.30528528
H        8.43914704       5.19649556      -4.32667627
H        6.45520790       5.42431122      -7.41392691
H        7.73320198       4.43660441      -6.69289568
H        7.46254900       6.13745409      -6.14829260
C       -2.09130062      -9.58029026      -0.90422228
S       -2.89143448      -8.62838900       0.40794599
C       -2.56500650      -6.98285560      -0.17190168
N       -2.51495619      -6.00268846       0.75904852
N       -2.28870443      -4.70732310       0.37506639
C       -2.13966606      -4.43523448      -0.93564260
C       -2.21066178      -5.48584259      -1.83215905
N       -2.40783911      -6.77504480      -1.48857621
O       -1.94281442      -5.26300909      -3.15716482
C       -3.07044889      -4.63604917      -3.77090433
H       -3.97233446      -5.22374259      -3.55956328
N       -3.32487645      -3.24890973      -3.35420855
C       -2.48325792      -2.51970094      -2.51595027
C       -2.26755994      -1.16359053      -2.82434846
C       -1.46478329      -0.35117017      -2.02289896
C       -0.88139931      -0.88139931      -0.88139931
C       -1.10109683      -2.21209993      -0.53440464
C       -1.90138192      -3.04967571      -1.34028430
C       -2.78274520      -4.62939251      -5.26919517
C       -1.64211287      -3.95077366      -5.75164560
C       -1.36812741      -3.90248770      -7.11475516
Br       0.15637335      -2.97388161      -7.73448939
C       -2.21840983      -4.52312250      -8.02208114
C       -3.34410845      -5.20980337      -7.55907321
C       -3.62407436      -5.28028460      -6.18918081
O       -4.71869898      -5.92282184      -5.67593609
C       -5.22206810      -7.01399126      -6.44174931
H       -2.15287791     -10.64475633      -0.65798346
H       -1.03542715      -9.30862038      -0.99003347
H       -2.59127209      -9.42437208      -1.86407310
H       -3.72345615      -2.70812201      -4.11641523
H       -2.72449873      -0.72422550      -3.70871230
H       -1.30957466       0.68887295      -2.29731437
H       -0.64890802      -2.61026781       0.37293433
H       -0.97231287      -3.46027486      -5.04665080
H       -2.01792296      -4.47794535      -9.08984068
H       -3.99781066      -5.66759415      -8.29691405
H       -5.91012856      -7.57849598      -5.80482148
H       -4.41938792      -7.69339466      -6.74991949
H       -5.78773748      -6.65394777      -7.30661044
C       -5.31487249      -0.97195394       8.23289461
S       -3.52263534      -0.77531612       8.36455828
C       -3.16463187      -0.17709097       6.73222287
N       -1.92330414      -0.41469649       6.24998848
N       -1.57586803       0.03981709       5.00527602
C       -2.48159078       0.73663632       4.29231603
C       -3.72860956       0.94868642       4.85136745
N       -4.11306040       0.49610705       6.06229266
O       -4.71072945       1.54618900       4.10606989
C       -4.47395464       2.95403900       4.04940875
H       -4.34608374       3.34203454       5.06752204
N       -3.30547589       3.36550003       3.25701882
C       -2.52853193       2.48959999       2.50077721
C       -2.08601660       2.93000991       1.23947242
C       -1.27893394       2.13106658       0.42885189
C       -0.88139931       0.88139931       0.88139931
C       -1.27890810       0.43091532       2.13777799
C       -2.10409382       1.22230236       2.96494574
C       -5.71514233       3.56248783       3.40370271
C       -6.07805962       3.16984561       2.09662689
C       -7.18787165       3.72756040       1.46993821
Br      -7.64170187       3.19587079      -0.28557500
C       -7.95518062       4.68317841       2.12525444
C       -7.61647105       5.07248211       3.42403186
C       -6.51177923       4.50848516       4.07327538
O       -6.12003799       4.86033183       5.33708708
C       -7.14993418       5.31969694       6.20817756
H       -5.69365166      -1.40280990       9.16477594
H       -5.57025664      -1.64931803       7.41314238
H       -5.80626462      -0.00710978       8.08056244
H       -3.46486562       4.26691951       2.81620825
H       -2.37662055       3.91118359       0.86963238
H       -0.96541692       2.49762030      -0.54502114
H       -0.94635090      -0.54605138       2.48594198
H       -5.48022839       2.42296371       1.57604643
H       -8.81592029       5.13328521       1.63650349
H       -8.22667367       5.83564050       3.90000469
H       -6.75066597       5.31561374       7.22716631
H       -8.02027395       4.65413971       6.18828841
H       -7.43439699       6.34822529       5.96567341
C        2.52475450      -9.50251729       0.54854137
S        3.33790807      -8.44861707      -0.67464764
C        2.90175312      -6.85184391      -0.03383326
N        2.84710163      -5.82962123      -0.91812672
N        2.53786840      -4.56752483      -0.48443209
C        2.31275437      -4.36914380       0.82864496
C        2.39349177      -5.45890298       1.67626868
N        2.67147662      -6.71827476       1.28170874
O        2.05164807      -5.31606532       2.99527494
C        3.11564754      -4.66749641       3.69425844
H        4.05502970      -5.19996404       3.50064659
N        3.31965177      -3.25056819       3.35777477
C        2.48352544      -2.52125708       2.51412660
C        2.18538436      -1.19425585       2.87585873
C        1.38205918      -0.38192550       2.07486773
C        0.88139931      -0.88139931       0.88139931
C        1.18410030      -2.18091958       0.48258152
C        1.98599289      -3.01868671       1.28666233
C        2.75657067      -4.74997899       5.17478321
C        1.56146560      -4.15186979       5.63119674
C        1.22045232      -4.18536850       6.97954944
Br      -0.37673921      -3.36315765       7.56557921
C        2.05645473      -4.80942629       7.89773246
C        3.23613674      -5.41727078       7.45957750
C        3.58455698      -5.40528634       6.10369645
O        4.73342517      -5.96805505       5.61597669
C        5.25378985      -7.07100410       6.35301473
H        2.65150413     -10.54908280       0.25503077
H        1.45365881      -9.28636996       0.59405223
H        2.96972394      -9.37130942       1.53868391
H        3.65358158      -2.73033444       4.16407736
H        2.57678450      -0.77854925       3.80210277
H        1.16178342       0.63437628       2.39060893
H        0.79646682      -2.55414563      -0.46437095
H        0.90236765      -3.65916830       4.91770258
H        1.80305929      -4.82765432       8.95499537
H        3.87595833      -5.87976572       8.20659481
H        5.99907238      -7.56917345       5.72520020
H        4.47246003      -7.80269505       6.58754700
H        5.75858096      -6.72824117       7.26147356
