150
Properties=species:S:1:pos:R:3 pbc="F F F"
C        6.38990600       0.94273719      -6.00205042
C        7.05721177       0.28030800      -4.79982654
H        8.12629071       0.18104407      -5.02678476
C        6.94548384       1.11738841      -3.50635613
N        5.57833178       1.34451682      -3.07291357
C        4.86482207       2.47205034      -3.42219169
O        5.34088059       3.36068697      -4.12458990
C        3.51405068       2.50823092      -2.90556627
C        2.51095749       3.44561040      -3.06445579
C        1.39190062       2.97369390      -2.33731878
C        1.77756054       1.77756054      -1.77756054
O        3.06046568       1.48163227      -2.11765664
N        6.52816610      -1.06685431      -4.61811654
C        7.25973649      -2.07332503      -4.02358529
O        8.41222442      -1.90393510      -3.63273739
C        6.55433559      -3.33068258      -3.90678165
C        6.97299692      -4.56615600      -3.45094776
C        5.86658956      -5.44179092      -3.56872117
C        4.83687231      -4.68890237      -4.08377517
Br       3.12109388      -5.32353407      -4.44806027
O        5.24121411      -3.40774110      -4.29415032
H        5.30247710       0.99692295      -5.88523802
H        6.58472988       0.36520369      -6.91267601
H        6.77564937       1.95493665      -6.15724895
H        7.44319777       2.08360879      -3.64776616
H        7.44910432       0.60445153      -2.67950935
H        5.11113316       0.64541652      -2.50711076
H        2.59269345       4.35837142      -3.64043940
H        0.42687889       3.45006368      -2.23533384
H        5.55379256      -1.25798786      -4.82475714
H        7.96633744      -4.79576636      -3.08595763
H        5.82914909      -6.49100023      -3.30926584
C       -7.33494316      -1.27587298      -4.72387746
C       -7.81046495      -1.03277021      -3.29411114
H       -8.90158685      -1.14949054      -3.28304215
C       -7.23674570      -2.04974122      -2.28274146
N       -5.78823654      -2.02316953      -2.18435610
C       -4.97710167      -2.86067589      -2.92128654
O       -5.42846608      -3.68657053      -3.71112085
C       -3.56075700      -2.67198565      -2.69510522
C       -2.46471543      -3.29571463      -3.26059362
C       -1.31570869      -2.71835836      -2.66884625
C       -1.77756054      -1.77756054      -1.77756054
O       -3.13671500      -1.73633004      -1.78670955
N       -7.51990097       0.34159845      -2.90112581
C       -8.26680201       1.01279905      -1.95599379
O       -9.23913883       0.50270232      -1.40459021
C       -7.80662462       2.35597753      -1.67978757
C       -8.33213699       3.34617873      -0.87183042
C       -7.47318292       4.46593148      -0.98626835
C       -6.47169981       4.09207777      -1.85212307
Br      -5.04516172       5.17429785      -2.37475622
O       -6.66288820       2.81571194      -2.28044706
H       -6.26114834      -1.09087588      -4.83261385
H       -7.84724329      -0.59878423      -5.41658207
H       -7.54650545      -2.30215969      -5.03916984
H       -7.56042311      -3.06151649      -2.55263312
H       -7.61725791      -1.83856493      -1.27724235
H       -5.34172983      -1.35388544      -1.56804517
H       -2.50584034      -4.07479605      -4.01086787
H       -0.28162331      -2.96176414      -2.86888895
H       -6.67749323       0.79492531      -3.23799392
H       -9.23504238       3.25889833      -0.28038466
H       -7.57557622       5.42470235      -0.49654083
C       -5.50597679       1.01745684       6.81125999
C       -6.21787895       0.06671797       5.85274938
H       -7.20870515      -0.14760136       6.27301575
C       -6.44339407       0.67500559       4.45082872
N       -5.21462582       1.02192763       3.75920873
C       -4.66318426       2.28512944       3.81075040
O       -5.17729796       3.20212588       4.44673362
C       -3.42959346       2.42930084       3.06895357
C       -2.59118952       3.51689475       2.91293940
C       -1.52640995       3.09583469       2.08066866
C       -1.77756054       1.77756054       1.77756054
O       -2.92608480       1.35986512       2.37380467
N       -5.49657367      -1.19916937       5.78202402
C       -6.12249542      -2.38946727       5.47696860
O       -7.33159670      -2.46106505       5.27049507
C       -5.23541182      -3.53080365       5.42582648
C       -5.49666442      -4.87428613       5.23541040
C       -4.25052407      -5.54448551       5.28748124
C       -3.30207301      -4.57116075       5.50083285
Br      -1.46787621      -4.87465249       5.65239637
O       -3.88631372      -3.34631190       5.58762150
H       -4.47333336       1.20958700       6.50171772
H       -5.46238924       0.58364892       7.81657142
H       -6.03374273       1.97353942       6.88055283
H       -7.07429899       1.56749722       4.53277651
H       -6.96662024      -0.04128211       3.80772707
H       -4.72183899       0.31182951       3.22999194
H       -2.74395129       4.49340234       3.35415064
H       -0.68373316       3.68376903       1.74477421
H       -4.48422144      -1.20669566       5.84303606
H       -6.47805023      -5.30669046       5.08516894
H       -4.07090238      -6.60571952       5.18223185
C        7.80542671      -1.88908248       3.64018442
C        8.02938432      -1.97506068       2.13290129
H        9.06473769      -2.30001268       1.96936917
C        7.11579723      -3.01148983       1.44194133
N        5.69891469      -2.72254525       1.57430224
C        4.92111377      -3.25862931       2.57932103
O        5.37750577      -4.01817096       3.43048072
C        3.53679600      -2.83947697       2.55157490
C        2.48451756      -3.14128023       3.39522588
C        1.35101466      -2.45611791       2.89578073
C        1.77756054      -1.77756054       1.77756054
O        3.10164852      -1.99799488       1.56011119
N        7.89321621      -0.65179707       1.53441505
C        8.54201171      -0.29777833       0.37020670
O        9.29509157      -1.06745930      -0.22152415
C        8.25913717       1.04672711      -0.08197540
C        8.77129725       1.77423303      -1.13927554
C        8.14174984       3.04203433      -1.10619572
C        7.27901221       3.01215995      -0.03510715
Br       6.17262817       4.41854451       0.49153643
O        7.34153445       1.80858643       0.59467530
H        6.81662975      -1.48568294       3.88232538
H        8.54356728      -1.22103521       4.09800709
H        7.90607603      -2.87265653       4.10910242
H        7.31856307      -4.00990747       1.84610218
H        7.32438085      -3.04190859       0.36677576
H        5.25548997      -2.08766445       0.92050602
H        2.54368623      -3.78283585       4.26498219
H        0.34941835      -2.46040486       3.30245319
H        7.21546441       0.00343295       1.90853037
H        9.51738227       1.42079217      -1.84006139
H        8.30056979       3.87174821      -1.78140688
C       -0.00445707       0.01189536      -1.78238275
H       -0.66409135       0.67374010      -2.43557963
H        0.65740317      -0.63156657      -2.45157240
C       -0.90989263      -0.90692880      -0.91072765
C        0.90977584       0.90977584      -0.90977584
C       -0.00465871       1.77757030       0.00794375
H       -0.66225468       2.44313916      -0.64384735
H        0.64322798       2.43503045       0.67728295
C       -1.78241447       0.00034974      -0.00472694
H       -2.45427497      -0.65498947       0.64260836
H       -2.43311707       0.67328779      -0.65473579
C       -0.91132561       0.90220522       0.91563759
C       -0.01476271      -0.02253852       1.78660255
H       -0.67934791      -0.69751639       2.42135241
H        0.63392994       0.61504881       2.47327442
C        0.01484550      -1.77751727      -0.01636693
H        0.67870853      -2.42144646      -0.68295456
H       -0.62264859      -2.45592969       0.64226336
C        1.78714474       0.01002794       0.00389507
H        2.44202412       0.67113390       0.66197326
H        2.45385902      -0.65136977      -0.64189061
C        0.91606151      -0.90478549       0.90901405
