173
Properties=species:S:1:pos:R:3 pbc="F F F"
C        0.00000000       0.00000000       0.00000000
C        3.93983056      10.81247264      -1.11839342
C        3.52835412       9.36770186      -1.34094452
S        2.71146075       8.71940715       0.14995016
C        2.44600535       7.04062771      -0.35897002
N        2.38987571       6.10075935       0.61037057
N        2.18936027       4.78812895       0.27494314
C        2.05548676       4.46237842      -1.02557614
C        2.12284728       5.47368511      -1.96736298
N        2.30367874       6.77559056      -1.66655147
O        1.84352723       5.23001617      -3.28106087
C        2.84411918       4.47302913      -3.95651996
N        3.37809413       3.26414726      -3.29595037
C        2.49857861       2.50437934      -2.50218898
C        2.32975416       1.13995370      -2.78777926
C        1.51752067       0.33361433      -1.98876423
C        0.88158273       0.88158273      -0.88158273
C        1.04980698       2.22825340      -0.56750079
C        1.85431951       3.05797745      -1.37221369
C        2.20401135       4.07678945      -5.35937377
O        1.26975692       3.31691693      -5.57317147
N        2.93047838       4.72493007      -6.35450499
C        3.97120881       5.46355086      -5.81819726
C        4.89812838       6.20889378      -6.51833751
C        5.89052043       6.86042065      -5.78096070
C        5.93070675       6.74223005      -4.38088720
C        4.98652100       5.97840557      -3.69052655
C        3.99391130       5.34598812      -4.42715353
H        4.43844414      11.19853977      -2.01352666
H        4.64051854      10.90804375      -0.28234675
H        3.07216162      11.45111238      -0.92202448
H        4.41438315       8.76392709      -1.56303235
H        2.84510870       9.31292253      -2.19466938
H        3.82612633       2.67931012      -3.99901711
H        2.82545060       0.68740041      -3.64346198
H        1.39497413      -0.71747467      -2.23656369
H        0.55638085       2.64234911       0.31070364
H        2.71019841       4.63383205      -7.33571353
H        4.86831730       6.29146168      -7.59930040
H        6.63586490       7.45830834      -6.30134148
H        5.02545325       5.88125819      -2.60977762
C        6.96358900       7.42259859      -3.64342336
C        7.82862789       7.99240724      -3.02579741
Br       9.22732261       8.91373964      -2.02714847
C       -8.54063151       0.45050626      -7.78057137
C       -7.52972202       0.02354503      -6.73082351
S       -6.55968021       1.46221521      -6.18345273
C       -5.43349505       0.65978122      -5.07188923
N       -4.22450467       1.23598963      -4.89174945
N       -3.31441550       0.65859346      -4.04672405
C       -3.64836105      -0.48239681      -3.41268346
C       -4.90269981      -1.01941722      -3.64177833
N       -5.82460401      -0.46589563      -4.45532113
O       -5.35437088      -2.08384292      -2.91639047
C       -4.71799560      -3.31751729      -3.23815539
N       -3.24510742      -3.34129961      -3.35178473
C       -2.50509730      -2.49996607      -2.50008356
C       -1.51987501      -3.06395273      -1.67365939
C       -0.71846570      -2.26124659      -0.86018694
C       -0.88158273      -0.88158273      -0.88158273
C       -1.83935508      -0.29826033      -1.70794576
C       -2.66538577      -1.09563542      -2.52348947
C       -5.18377252      -4.34325801      -2.11314403
O       -4.90271387      -4.33431218      -0.92281927
N       -5.96183308      -5.32079554      -2.72728482
C       -6.05210894      -5.10859830      -4.09224968
C       -6.72493808      -5.89538486      -5.00503673
C       -6.66675456      -5.51626038      -6.34888684
C       -5.93882223      -4.37811977      -6.73688200
C       -5.25958989      -3.59740848      -5.79845475
C       -5.33374986      -3.97026084      -4.46304224
H       -9.11798838      -0.41777507      -8.11474712
H       -8.05103353       0.88065854      -8.66053406
H       -9.24860907       1.18417975      -7.38086916
H       -6.85737060      -0.72995953      -7.15401246
H       -8.05671325      -0.41748215      -5.87850521
H       -2.92736812      -4.30549885      -3.27158659
H       -1.36789030      -4.14049846      -1.64792423
H        0.03045392      -2.72264288      -0.22187419
H       -1.94808629       0.78528323      -1.72522326
H       -6.37983246      -6.08434714      -2.21556439
H       -7.27922297      -6.77716766      -4.70268876
H       -7.18780939      -6.11312523      -7.09458011
H       -4.69036258      -2.72404548      -6.10208101
C       -5.89337970      -4.00837091      -8.12786034
C       -5.85532158      -3.69870625      -9.29280471
Br      -5.79378483      -3.19800467     -11.17642122
C      -10.97708747       3.22541830       1.66819085
C       -9.46233888       3.11763872       1.65702290
S       -8.94844365       1.71746471       0.61500937
C       -7.19396069       1.78055519       0.87108719
N       -6.50796858       0.62262750       0.74966841
N       -5.15158934       0.61197778       0.93897897
C       -4.52903987       1.76618260       1.24821885
C       -5.29094466       2.91592292       1.35702778
N       -6.62431647       2.96019348       1.16131082
O       -4.70160115       4.13679670       1.51620642
C       -4.12812613       4.34096444       2.80457769
N       -3.28920713       3.26933672       3.37964790
C       -2.50322676       2.50358068       2.49833948
C       -1.11801360       2.42497206       2.71450147
C       -0.30844460       1.62675480       1.90469982
C       -0.88158273       0.88158273       0.88158273
C       -2.25616003       0.92869492       0.66070622
C       -3.08421380       1.74045631       1.45984054
C       -3.27578905       5.68027470       2.68411082
O       -2.25720063       5.86882196       2.03382273
N       -3.87107432       6.63612879       3.50271033
C       -4.96912184       6.11698237       4.16685272
C       -5.77506538       6.78090119       5.06939310
C       -6.82144115       6.05968764       5.65077298
C       -7.02391866       4.70820574       5.32169959
C       -6.19374231       4.05198065       4.40973017
C       -5.16534334       4.77789196       3.82381764
H      -11.28494858       4.06343835       2.30212364
H      -11.44295328       2.31906354       2.06889223
H      -11.37381552       3.40762243       0.66386053
H       -9.09782443       2.96530136       2.67821679
H       -9.03570716       4.04819628       1.26879717
H       -2.71605639       3.66665111       4.12174607
H       -0.64906330       2.99182993       3.51541977
H        0.76254630       1.59058057       2.08602888
H       -2.69462514       0.32950802      -0.13610683
H       -3.51265932       7.57597833       3.59110634
H       -5.61095417       7.82165329       5.32647193
H       -7.47733609       6.55328635       6.36489229
H       -6.34672355       3.00537913       4.16438639
C       -8.10863426       3.98626133       5.93471536
C       -9.01708357       3.38163289       6.44811608
Br     -10.48596928       2.40399983       7.27824160
C       -0.23546555      -9.45360943       6.65255274
C        0.12095217      -8.14320009       5.97284824
S       -1.20230309      -7.66316443       4.82005639
C       -0.47945047      -6.19910818       4.12594536
N       -0.85093157      -5.85930917       2.87188689
N       -0.32278975      -4.74010549       2.28523035
C        0.56532027      -4.00042133       2.97769972
C        0.90205910      -4.40444357       4.25739269
N        0.38751365      -5.49182506       4.86648206
O        1.67482528      -3.61784349       5.06193549
C        3.04411939      -3.55725607       4.67229281
N        3.36121278      -3.32965090       3.24732808
C        2.49905639      -2.50123517       2.50485536
C        3.03226553      -1.38534365       1.83987795
C        2.22689589      -0.57262619       1.04037715
C        0.88158273      -0.88158273       0.88158273
C        0.33486305      -1.99475576       1.51594236
C        1.13110560      -2.81597816       2.33742690
C        3.68720790      -2.39844279       5.55452388
O        3.46160554      -1.19754607       5.50069371
N        4.61922328      -2.98323428       6.40745588
C        4.70735941      -4.34860705       6.19699046
C        5.54333932      -5.23029173       6.85172863
C        5.49404734      -6.57244678       6.46540764
C        4.62508235      -6.98732782       5.44141383
C        3.79030515      -6.07855298       4.78659499
C        3.83258170      -4.74921859       5.18525264
H        0.56549713      -9.74515792       7.33985552
H       -0.35945137     -10.26387337       5.92648706
H       -1.15687671      -9.36452700       7.23764819
H        1.06013673      -8.25917263       5.42203323
H        0.25475489      -7.36583758       6.73210813
H        4.32386968      -3.00536343       3.17522045
H        4.08447707      -1.13004561       1.94179031
H        2.66121461       0.29125413       0.54410267
H       -0.71806077      -2.23348627       1.37260083
H        5.15835190      -2.44842229       7.07296981
H        6.21794994      -4.90500537       7.63612408
H        6.13829157      -7.29465575       6.96256741
H        3.12676680      -6.40015830       3.98956397
C        4.59306205      -8.37574741       5.06080150
C        4.56624505      -9.53854881       4.74203867
Br       4.52288423     -11.41870034       4.22662614
