181
Properties=species:S:1:pos:R:3 pbc="F F F"
C        0.00000000       0.00000000       0.00000000
O       11.11391216       4.45198040       0.20426083
C        9.92670426       4.66504857      -0.02746973
C        8.87383288       3.59828843       0.29524448
N        7.84947501       3.44296492      -0.77888817
C        8.49152082       2.93017374      -2.00679510
C        7.54352779       2.67714857      -3.18208368
C        6.68039940       1.43956132      -2.98784542
N        5.41285191       1.70307102      -2.26460198
C        5.48908276       2.60061983      -1.07855102
C        6.80215828       2.51626384      -0.28330964
S        4.06942632       2.00152521      -3.28493576
O        4.11088454       3.39691275      -3.67076397
O        3.98746614       0.94885481      -4.27404402
C        2.58691325       1.84981274      -2.31210207
C        1.57244789       2.74541864      -2.02135074
C        0.57126868       2.17455903      -1.18062792
C        0.87189041       0.87189041      -0.87189041
S        2.32172281       0.33244147      -1.56219544
N        9.37859137       5.83681921      -0.52179104
C       10.05340996       7.04121746      -0.80937323
C       11.39568951       7.26893635      -0.48930136
C       12.01059378       8.48600859      -0.80070693
C       11.28758711       9.49190565      -1.43455193
C        9.94820240       9.27475983      -1.74698381
Br       8.96085535      10.64071794      -2.60638338
C        9.32771264       8.06139269      -1.43535843
H        8.39483287       3.92899306       1.22602233
H        9.38235009       2.64693054       0.49407387
H        9.05716171       2.01290765      -1.79345187
H        9.22196606       3.66908290      -2.35741514
H        6.94117133       3.56726114      -3.39587108
H        8.17051748       2.50927370      -4.06753712
H        6.46065159       1.00948126      -3.97184398
H        7.22549230       0.64895339      -2.45807397
H        5.29681406       3.64118327      -1.36253003
H        4.68362309       2.29761515      -0.39826662
H        6.54098524       2.81893800       0.73972923
H        7.17138005       1.48487726      -0.21228693
H        1.55818790       3.75983634      -2.40372178
H       -0.31283869       2.69678428      -0.83450109
H        8.39719805       5.76864620      -0.77721846
H       11.99749382       6.51815683       0.01365982
H       13.05597788       8.64160148      -0.54512977
H       11.77447239      10.43301305      -1.67674203
H        8.28183797       7.91696946      -1.69037526
O       -8.34653767       1.44777496      -8.46286902
C       -8.00225506       0.83727762      -7.45424511
C       -6.73849990       1.25475204      -6.69312896
N       -5.90586254       0.09447016      -6.25993571
C       -5.37485608      -0.60632810      -7.44730548
C       -4.45905538      -1.79608224      -7.14762242
C       -3.08523527      -1.37236569      -6.65020518
N       -3.01341155      -1.18641831      -5.18069506
C       -4.15402815      -0.47864693      -4.53557853
C       -4.81427156       0.60994324      -5.39740345
S       -2.46786357      -2.56527677      -4.32274694
O       -3.60398346      -3.44298899      -4.13158881
O       -1.24242657      -3.04056604      -4.92737235
C       -2.01472693      -2.05499130      -2.67910983
C       -2.47983241      -2.42908214      -1.43030272
C       -1.81268997      -1.73845806      -0.37530759
C       -0.87189041      -0.87189041      -0.87189041
S       -0.78237325      -0.87049182      -2.56349464
N       -8.68004971      -0.20790276      -6.84924915
C       -9.92506815      -0.75170310      -7.22722940
C      -10.74143951      -0.19531545      -8.21717226
C      -11.96746892      -0.78132886      -8.54851152
C      -12.39272645      -1.93114406      -7.89017418
C      -11.58885606      -2.48420822      -6.89688176
Br     -12.16451165      -4.04593986      -5.99750516
C      -10.36393559      -1.90098311      -6.55954505
H       -7.09313477       1.81093774      -5.81560657
H       -6.15813920       1.94286651      -7.31993407
H       -4.85089777       0.09662433      -8.10924778
H       -6.21608986      -1.00673074      -8.02564350
H       -4.94457888      -2.49870630      -6.46101838
H       -4.31804106      -2.33643464      -8.09285259
H       -2.35330597      -2.12621653      -6.96245433
H       -2.75045112      -0.44722326      -7.13484527
H       -4.91424441      -1.19062313      -4.19565982
H       -3.75552088       0.01877423      -3.64275820
H       -5.25532140       1.31743968      -4.68231229
H       -4.07395021       1.17953690      -5.97413093
H       -3.26053222      -3.16866676      -1.29254704
H       -2.01655370      -1.88120885       0.67931586
H       -8.16364093      -0.67227004      -6.10715173
H      -10.45668502       0.70601914      -8.75132496
H      -12.58588688      -0.33389533      -9.32292692
H      -13.34487975      -2.38240140      -8.15694633
H       -9.75528047      -2.35246367      -5.78143855
O        1.32189463       7.23192892       9.45159744
C        0.65096602       6.35255702       8.91763156
C        1.13639806       5.69053337       7.62274152
N        0.04883785       5.50181079       6.61835516
C       -0.44318283       6.81942765       6.16587918
C       -1.53449517       6.77528093       5.09298393
C       -0.99973598       6.38468905       3.72338110
N       -0.97101900       4.92066708       3.48883884
C       -0.48826437       4.06887044       4.61111881
C        0.59797974       4.70834064       5.49137087
S       -2.35738079       4.30868079       2.68982571
O       -3.38652962       4.10390359       3.68812805
O       -2.60481094       5.10082483       1.50472920
C       -1.98045087       2.67474596       2.09363123
C       -2.54665188       1.43880987       2.35375552
C       -1.89954259       0.38636527       1.64054776
C       -0.87189041       0.87189041       0.87189041
S       -0.67093995       2.54930747       0.99611229
N       -0.53182744       5.81185516       9.39351902
C       -1.18209989       6.11411511      10.60778565
C       -0.62584604       6.92930167      11.59877950
C       -1.32054270       7.19299411      12.78377249
C       -2.58073050       6.64095623      12.99235796
C       -3.13564990       5.82065864      12.01363750
Br      -4.84762822       5.06595339      12.29437506
C       -2.44450894       5.55128027      10.82867454
H        1.54248971       4.71615879       7.92413452
H        1.95738608       6.28670292       7.20588993
H        0.38926575       7.44209439       5.81069258
H       -0.87910390       7.34616313       7.02319707
H       -2.36454179       6.13253999       5.40722178
H       -1.94425130       7.79063266       5.01244434
H       -1.61627164       6.86861852       2.95708667
H        0.00826961       6.78361771       3.55717156
H       -1.32340892       3.73849125       5.23862719
H       -0.04728010       3.17064213       4.16158262
H        1.16047576       3.86548267       5.91518710
H        1.31662829       5.28782741       4.89734513
H       -3.38907639       1.30891269       3.02375694
H       -2.18327448      -0.65808974       1.69326194
H       -1.00741969       5.19605473       8.73958828
H        0.35792245       7.37445914      11.48545415
H       -0.87084926       7.83142251      13.54043737
H       -3.11539549       6.85457569      13.91425630
H       -2.89982834       4.90863408      10.08072027
O        7.51011826      -9.22461922      -1.37310575
C        6.60003614      -8.73128452      -0.71209810
C        5.91679521      -7.44147806      -1.18139645
N        5.67379454      -6.47128643      -0.07375288
C        6.96595565      -5.99824726       0.46428674
C        6.86553069      -4.95597904       1.58125030
C        6.45283508      -3.58323925       1.07173181
N        4.98435998      -3.38569803       1.01046692
C        4.17512124      -4.51636847       0.47676390
C        4.86525827      -5.35096845      -0.61449495
S        4.31612201      -2.63948706       2.40027822
O        4.11136761      -3.66950008       3.39769357
O        5.07013636      -1.44137159       2.69885702
C        2.67725900      -2.07572362       1.99584544
C        1.43447569      -2.38233788       2.52240370
C        0.38056336      -1.67958475       1.86630751
C        0.87189041      -0.87189041       0.87189041
S        2.55660640      -0.94765163       0.71210169
N        6.04186814      -9.25191379       0.44341969
C        6.35923044     -10.47473605       1.07003417
C        7.21427264     -11.42946031       0.51019427
C        7.49118102     -12.62519024       1.18093804
C        6.91265107     -12.88102981       2.42036380
C        6.05285910     -11.93866672       2.97842022
Br       5.26209805     -12.28372339       4.66213522
C        5.77017811     -10.74320655       2.31107909
H        4.96145455      -7.75698648      -1.62063742
H        6.52265757      -6.98795714      -1.97540796
H        7.60021706      -5.60536696      -0.34206279
H        7.50373743      -6.85294738       0.89177929
H        6.21019098      -5.30839056       2.38572201
H        7.86754822      -4.86021864       2.01956144
H        6.90040367      -2.82128718       1.72028598
H        6.87299997      -3.38032645       0.07919323
H        3.84005842      -5.17395059       1.28651835
H        3.27697727      -4.07858106       0.02394653
H        4.04858892      -5.78131681      -1.20971172
H        5.44715064      -4.72351947      -1.30212587
H        1.30069221      -3.07742734       3.34362647
H       -0.66908142      -1.76656603       2.12096207
H        5.39703338      -8.62677746       0.91925187
H        7.68140657     -11.27884751      -0.45826323
H        8.16067130     -13.35309267       0.72894516
H        7.13669530     -13.81091095       2.93662123
H        5.09655802     -10.02426544       2.76835923
