145
Properties=species:S:1:pos:R:3 pbc="F F F"
C        0.00000000       0.00000000       0.00000000
C        0.88121850       0.88121850      -0.88121850
C        0.45038479       1.24070966      -2.15406651
C        1.25647989       2.05496215      -2.95916291
C        2.49721377       2.52193521      -2.50376447
C        2.91536336       2.13149840      -1.22124492
C        2.11326452       1.32048014      -0.41108152
N        3.32874037       3.38139676      -3.30518047
C        4.69664943       3.11062522      -3.37312227
O        5.29750418       2.22988112      -2.76012939
N        5.44003400       3.89585365      -4.20583722
C        4.87719968       4.80064595      -5.16680197
H        5.65654445       5.51639676      -5.45119673
C        3.72894162       5.52532024      -4.51607107
C        2.71519456       4.42592730      -4.16978485
C        1.54179693       5.16370565      -3.48325237
O        2.17845510       3.82587817      -5.37073933
C        3.05746337       3.60373027      -6.39569405
C        2.56547415       2.91338607      -7.50232062
C        3.39897343       2.65705684      -8.59216907
C        4.72316730       3.09179066      -8.56539589
Br       5.85374257       2.74565584     -10.04029298
C        5.22074866       3.78499153      -7.46195833
C        4.38100001       4.05571093      -6.37272178
H       -0.50379318       0.88822702      -2.53654834
H        0.90390492       2.28028655      -3.96136317
H        3.86744026       2.47263764      -0.82017664
H        2.46461050       1.04260532       0.57889293
H        6.39423291       3.57495473      -4.31170296
H        4.06443908       6.05539298      -3.61502911
H        3.30027792       6.26281877      -5.20750849
H        0.65482019       4.53713273      -3.36161433
H        1.20536893       6.00734929      -4.09871169
H        1.83143503       5.54975972      -2.49997681
H        1.53417796       2.57098237      -7.51598215
H        3.00852070       2.11689276      -9.45060149
H        6.25585150       4.11727373      -7.44886464
C       -0.88121850      -0.88121850      -0.88121850
C       -2.07171284      -1.39547560      -0.37797253
C       -2.88296539      -2.19815891      -1.18948064
C       -2.51881029      -2.49365984      -2.51044332
C       -1.30457006      -1.97490681      -2.98862981
C       -0.49112756      -1.17005091      -2.18364771
N       -3.35137075      -3.29459212      -3.36935473
C       -2.74838710      -4.28467999      -4.14732982
O       -1.54329538      -4.51665774      -4.22756157
N       -3.57707032      -5.07748520      -4.88716935
C       -5.00337845      -5.10776514      -4.73350401
H       -5.42931879      -5.55751163      -5.63730753
C       -5.49207485      -3.69113200      -4.58712608
C       -4.83346537      -3.17868314      -3.29875819
C       -5.31747612      -1.71667840      -3.15460043
O       -5.33442971      -3.89411425      -2.14652864
C       -5.52417430      -5.24156333      -2.29115004
C       -5.88756338      -5.94797343      -1.14564403
C       -6.10860420      -7.32438043      -1.21521471
C       -5.96096764      -7.98625086      -2.43313536
Br      -6.25977858      -9.85031587      -2.52959694
C       -5.59973547      -7.28463706      -3.58332600
C       -5.39134319      -5.89999995      -3.51808958
H       -2.37656627      -1.18887875       0.64446284
H       -3.78384769      -2.61388854      -0.74781840
H       -0.98079704      -2.17078629      -4.00867120
H        0.43896361      -0.77963839      -2.58764811
H       -3.09934248      -5.85332431      -5.32822381
H       -5.19508469      -3.08601989      -5.45375658
H       -6.58746306      -3.66949231      -4.51364981
H       -5.09179515      -1.28563169      -2.17614041
H       -6.41016016      -1.66348131      -3.23778845
H       -4.88241854      -1.07247522      -3.92627780
H       -5.99535272      -5.42867685      -0.19711291
H       -6.39011710      -7.86841194      -0.31748591
H       -5.48386673      -7.81006275      -4.52806039
C       -0.88121850       0.88121850       0.88121850
C       -2.14660262       1.25656066       0.44199768
C       -2.95710966       2.05932260       1.25417268
C       -2.51733356       2.49311865       2.51246124
C       -1.22993596       2.11304132       2.92512940
C       -0.41656041       1.30884467       2.11942110
N       -3.34516005       3.29649246       3.37366508
C       -2.76932041       4.39291409       4.01816242
O       -1.58562529       4.72416546       3.97772393
N       -3.60189748       5.17843535       4.76139205
C       -5.03327307       5.08422014       4.72715440
H       -5.42394554       5.57426989       5.62592252
C       -5.41019101       3.62648535       4.73365657
C       -4.81309189       3.05974161       3.43807320
C       -5.18134042       1.55749053       3.44992400
O       -5.46120013       3.63376734       2.28010513
C       -5.75249034       4.96969650       2.33470084
C       -6.26264985       5.54606432       1.17246667
C       -6.59333565       6.90196235       1.15290134
C       -6.40769883       7.67407352       2.29858150
Br      -6.85483040       9.51059558       2.27426541
C       -5.89972249       7.10269847       3.46527757
C       -5.58056610       5.73800520       3.49086142
H       -2.51170759       0.94098112      -0.53170652
H       -3.92166044       2.36460291       0.85929129
H       -0.84531656       2.41924820       3.89568977
H        0.57192290       1.02780312       2.47244267
H       -3.15862682       6.02373271       5.09853108
H       -4.99632420       3.12194837       5.61658860
H       -6.50219483       3.51330442       4.75510593
H       -4.99700365       1.06407036       2.49249324
H       -6.25576286       1.42643811       3.62922894
H       -4.63442287       1.01685481       4.22989388
H       -6.39975829       4.94149748       0.27988671
H       -6.98908265       7.34439935       0.24253295
H       -5.75540359       7.71366255       4.35292374
C        0.88121850      -0.88121850       0.88121850
C        0.32882986      -1.54393650       1.97239460
C        1.13665868      -2.35773505       2.77621122
C        2.50092777      -2.52240647       2.49957920
C        3.03662620      -1.82990883       1.40157164
C        2.23410414      -1.01762112       0.59310092
N        3.34268351      -3.37516637       3.29746771
C        4.60362577      -2.90620148       3.67056966
O        5.11395748      -1.83883931       3.33471790
N        5.34071471      -3.70731629       4.49369388
C        4.81586637      -4.85894693       5.16983430
H        5.66253916      -5.48128641       5.48031238
C        3.94878802      -5.61956306       4.20198185
C        2.81119168      -4.65163058       3.84808444
C        1.92806341      -5.42206943       2.83862212
O        1.98280857      -4.38871562       5.00354842
C        2.62599486      -4.22999096       6.20090186
C        1.83868400      -3.85428688       7.28820997
C        2.42079217      -3.68230862       8.54509856
C        3.79070397      -3.88501095       8.70463893
Br       4.58113321      -3.65258687      10.40597131
C        4.58346590      -4.26319591       7.62103671
C        3.99798524      -4.45022627       6.36122121
H       -0.72425935      -1.42994549       2.21529605
H        0.67767041      -2.82580692       3.64207731
H        4.08848299      -1.92967341       1.14209814
H        2.67980268      -0.50123772      -0.25271751
H        6.18543574      -3.26367123       4.83178364
H        4.52065354      -5.90494145       3.30926617
H        3.56489211      -6.53570688       4.67000619
H        0.96823188      -4.93474571       2.65058966
H        1.66613564      -6.41147352       3.23382075
H        2.44098927      -5.55955933       1.88062296
H        0.77220007      -3.69132790       7.15761451
H        1.80063789      -3.38778236       9.38759469
H        5.65159133      -4.41585502       7.75454353
