165
Properties=species:S:1:pos:R:3 pbc="F F F"
C        0.00000000       0.00000000       0.00000000
C        0.86741067       0.86741067      -0.86741067
C        1.77919341       1.79066683      -0.41082192
C        2.35246334       2.38215180      -1.56295732
C        1.75749165       1.78211432      -2.65679420
O        0.85201852       0.84583977      -2.22719389
C        1.93985838       1.99985183      -4.07707182
O        2.65022147       2.88870772      -4.53640320
N        1.24386001       1.11310244      -4.87225585
C        1.23373111       1.18287116      -6.31687814
C        2.57452848       0.82893276      -6.96338872
C        3.11591944      -0.55800276      -6.60709407
C        2.32625440      -1.70500180      -7.24170369
C        2.95371333      -3.05147590      -6.87704153
C        2.24911907      -4.21774772      -7.55956115
N        2.82672646      -5.47863629      -7.15132654
C        2.23358629      -6.68914106      -7.43467343
O        1.15760232      -6.77606671      -8.02031954
C        2.98530503      -7.83384931      -6.96554091
C        2.68341304      -9.18255023      -6.96392111
C        3.77919324      -9.84567963      -6.35904679
C        4.68953502      -8.86575279      -6.03785693
Br       6.33985389      -9.15903511      -5.21894751
O        4.21943270      -7.64184838      -6.39770929
H        2.00212338       2.01649180       0.62293105
H        3.10799552       3.15573944      -1.60671019
H        0.65611535       0.43531912      -4.39954444
H        0.95490583       2.20436529      -6.60005124
H        0.44244241       0.51382267      -6.66922991
H        3.32529967       1.57007249      -6.66516929
H        2.47611479       0.91437476      -8.05225736
H        3.15047780      -0.68422404      -5.51845407
H        4.15469013      -0.61376785      -6.95735144
H        2.31695818      -1.58491845      -8.33153296
H        1.28500337      -1.68469499      -6.90190772
H        2.91885228      -3.18789195      -5.78855752
H        4.01452388      -3.05609715      -7.15799532
H        2.34129980      -4.14655226      -8.64901652
H        1.18131582      -4.22863717      -7.31353601
H        3.75691359      -5.50830137      -6.74872056
H        1.77073581      -9.62008814      -7.34664190
H        3.88727756     -10.90643652      -6.18075686
C       -0.86741067      -0.86741067      -0.86741067
C       -1.12798177      -2.20078512      -0.65191527
C       -1.96978803      -2.61480386      -1.71298056
C       -2.17578600      -1.50704279      -2.51357138
O       -1.50485645      -0.43276059      -1.98743514
C       -2.93349982      -1.34588354      -3.73739867
O       -3.47127583      -2.27959914      -4.32445742
N       -3.00083967      -0.04290587      -4.18547275
C       -3.65529562       0.33919352      -5.41737831
C       -5.17781425       0.19217397      -5.38120968
C       -5.87498945       0.97666743      -4.26668873
C       -5.86715760       2.49105598      -4.48685467
C       -6.61943184       3.19879375      -3.35864086
C       -6.71050346       4.70329372      -3.58372276
N       -7.37511076       5.35066203      -2.47496798
C       -7.38280338       6.71880370      -2.31511899
O       -6.79553624       7.47647685      -3.08279576
C       -8.12772024       7.16924015      -1.15851653
C       -8.28322391       8.42808773      -0.60964775
C       -9.10365985       8.27613273       0.53496673
C       -9.41006619       6.93730587       0.61112117
Br     -10.47683636       6.15223489       1.92483518
O       -8.82268430       6.25509114      -0.40770046
H       -0.75515440      -2.80457001       0.16404027
H       -2.38294234      -3.59963909      -1.88786371
H       -2.49466491       0.65401395      -3.65032795
H       -3.25090785      -0.28910893      -6.21930559
H       -3.36856719       1.37370933      -5.63063712
H       -5.43491741      -0.86653506      -5.25908898
H       -5.58606400       0.49595379      -6.35263671
H       -5.42627079       0.73694039      -3.29537743
H       -6.91746018       0.63658024      -4.21739378
H       -6.33919919       2.72426350      -5.44863701
H       -4.83826438       2.86481946      -4.52877117
H       -6.11639330       3.00041429      -2.40353883
H       -7.63193765       2.78506633      -3.26955074
H       -7.28109147       4.92882010      -4.49149270
H       -5.71341483       5.14368974      -3.69648957
H       -7.96344948       4.81364097      -1.84752426
H       -7.84066763       9.33757234      -0.99419428
H       -9.42818541       9.04934726       1.21724023
C       -0.86741067       0.86741067       0.86741067
C       -1.77562457       1.79419687       0.41086072
C       -2.35034472       2.38418836       1.56303938
C       -1.75975414       1.77979414       2.65685189
O       -0.85559131       0.84229214       2.22716873
C       -1.94523144       1.99433786       4.07721273
O       -2.65448477       2.88384017       4.53700745
N       -1.25358206       1.10374280       4.87189344
C       -1.24700971       1.16975803       6.31671268
C       -2.59038339       0.81762206       6.95884451
C       -3.13442721      -0.56698476       6.59756830
C       -2.34936785      -1.71765575       7.23124418
C       -2.97935303      -3.06155721       6.86148313
C       -2.27953753      -4.23140442       7.54279939
N       -2.85933801      -5.48973745       7.12981615
C       -2.27005752      -6.70249925       7.41156039
O       -1.19581974      -6.79371816       7.99975358
C       -3.02351096      -7.84404530       6.93753097
C       -2.72509617      -9.19351388       6.93320163
C       -3.82101530      -9.85224421       6.32378930
C       -4.72799225      -8.86914074       6.00278764
Br      -6.37693864      -9.15603998       5.17886764
O       -4.25566640      -7.64738873       6.36701596
H       -1.99529670       2.02326381      -0.62287637
H       -3.10398933       3.15961213       1.60684369
H       -0.66636721       0.42566332       4.39894838
H       -0.96628347       2.18979365       6.60324526
H       -0.45836364       0.49775836       6.66937299
H       -3.33846626       1.56146803       6.66060717
H       -2.49456626       0.89999988       8.04818077
H       -3.16649523      -0.69030734       5.50851994
H       -4.17424076      -0.62096632       6.94499928
H       -2.34258072      -1.60040878       8.32140076
H       -1.30719251      -1.69916563       6.89418922
H       -2.94202881      -3.19525445       5.77274348
H       -4.04089511      -3.06415947       7.13968642
H       -2.37435182      -4.16278157       8.63219382
H       -1.21113316      -4.24442093       7.29950243
H       -3.78855414      -5.51595779       6.72473643
H       -1.81454368      -9.63439682       7.31714271
H       -3.93137430     -10.91225451       6.14247812
C        0.86741067      -0.86741067       0.86741067
C        1.36911755      -2.09830164       0.51326296
C        2.11066260      -2.55797772       1.62893214
C        2.01974578      -1.57760721       2.59904718
O        1.26292697      -0.53628803       2.12583718
C        2.56277846      -1.51372902       3.94027455
O        3.15814969      -2.44625682       4.47092588
N        2.35384165      -0.30463387       4.57074278
C        2.75891444      -0.04068343       5.93388255
C        4.27499483       0.03410317       6.12595829
C        4.98375556       1.07913155       5.26038675
C        4.69877948       2.52133864       5.68551544
C        5.47576693       3.50131710       4.80482912
C        5.28831713       4.94686901       5.24948438
N        5.98679200       5.85247851       4.36510323
C        5.79383167       7.21588880       4.40117579
O        4.98970865       7.74896212       5.16110863
C        6.60949322       7.94814876       3.45565216
C        6.63299664       9.28878455       3.12057184
C        7.61883844       9.44125770       2.11497965
C        8.14675430       8.18874850       1.90363335
Br       9.49989411       7.78475333       0.68462552
O        7.54193405       7.27452606       2.70788563
H        1.21716536      -2.60720484      -0.42868606
H        2.65016277      -3.49071158       1.72957080
H        1.82064988       0.39256502       4.06289406
H        2.35432306      -0.84138943       6.56360988
H        2.28063620       0.89501630       6.23987508
H        4.71555666      -0.94420224       5.90078255
H        4.48869813       0.22960927       7.18365805
H        4.72007869       0.94052080       4.20514994
H        6.06422850       0.90048074       5.33452596
H        4.98762816       2.65838838       6.73433291
H        3.62711419       2.73597862       5.61108053
H        5.15003891       3.39287103       3.76234997
H        6.54451768       3.25303750       4.82494189
H        5.68220842       5.09896552       6.26052117
H        4.22697768       5.21949299       5.25872998
H        6.73645927       5.51223753       3.77311104
H        5.99896972      10.05272174       3.55104158
H        7.90512894      10.35287364       1.60934261
