186
Properties=species:S:1:pos:R:3 pbc="F F F"
C        1.77731470       1.77731470      -1.77731470
C        2.68909744       2.70057085      -1.32072594
C        3.26236736       3.29205582      -2.47286134
C        2.66739567       2.69201835      -3.56669822
O        1.76192255       1.75574379      -3.13709791
C        2.84976241       2.90975585      -4.98697585
O        3.56012550       3.79861174      -5.44630722
N        2.15376403       2.02300646      -5.78215987
C        2.14363514       2.09277519      -7.22678216
C        3.48443250       1.73883679      -7.87329274
C        4.02582346       0.35190126      -7.51699809
C        3.23615843      -0.79509778      -8.15160771
C        3.86361735      -2.14157188      -7.78694555
C        3.15902310      -3.30784370      -8.46946518
N        3.73663048      -4.56873227      -8.06123057
C        3.14349031      -5.77923703      -8.34457746
O        2.06750635      -5.86616268      -8.93022356
C        3.89520905      -6.92394528      -7.87544493
C        3.59331707      -8.27264620      -7.87382513
C        4.68909726      -8.93577561      -7.26895082
C        5.59943904      -7.95584877      -6.94776095
Br       7.24975791      -8.24913108      -6.12885154
O        5.12933672      -6.73194435      -7.30761332
H        2.91202741       2.92639583      -0.28697298
H        4.01789955       4.06564346      -2.51661421
H        1.56601937       1.34522315      -5.30944847
H        1.86480986       3.11426932      -7.50995527
H        1.35234643       1.42372669      -7.57913394
H        4.23520370       2.47997651      -7.57507331
H        3.38601881       1.82427878      -8.96216139
H        4.06038183       0.22567998      -6.42835809
H        5.06459415       0.29613617      -7.86725546
H        3.22686221      -0.67501443      -9.24143699
H        2.19490739      -0.77479097      -7.81181175
H        3.82875630      -2.27798792      -6.69846154
H        4.92442791      -2.14619312      -8.06789935
H        3.25120383      -3.23664823      -9.55892054
H        2.09121984      -3.31873314      -8.22344004
H        4.66681761      -4.59839735      -7.65862459
H        2.68063984      -8.71018412      -8.25654592
H        4.79718159      -9.99653249      -7.09066089
C       -1.77731470      -1.77731470      -1.77731470
C       -3.03453062      -2.22798451      -1.44787910
C       -3.46961983      -3.01719693      -2.54046776
C       -2.45145710      -2.99954915      -3.47510599
O       -1.41661581      -2.23017145      -3.00797699
C       -2.33708833      -3.64046960      -4.76893617
O       -3.17159969      -4.42586859      -5.20757619
N       -1.20323585      -3.28565732      -5.47003719
C       -0.85760102      -3.84909437      -6.75649710
C       -1.78770836      -3.41695338      -7.89190030
C       -1.88868012      -1.90392539      -8.10211731
C       -0.62045887      -1.28163718      -8.69057231
C       -0.81535063       0.21913544      -8.91277584
C        0.39447968       0.86358658      -9.57871084
N        0.20433921       2.28947872      -9.72294672
C        1.22893218       3.13931548     -10.07707839
O        2.37878199       2.74767337     -10.25802258
C        0.82599448       4.52449949     -10.19720266
C        1.56351621       5.67027343     -10.42828564
C        0.64939719       6.75226941     -10.42393908
C       -0.59225250       6.20329987     -10.20239860
Br      -2.18907061       7.16272568     -10.10313344
O       -0.49873282       4.85437687     -10.06064974
H       -3.57206584      -2.02052245      -0.53280791
H       -4.40899928      -3.54381309      -2.64734485
H       -0.55576003      -2.65606578      -5.00886518
H       -0.88657560      -4.94068444      -6.66177441
H        0.17696545      -3.56249238      -6.96968013
H       -2.79693855      -3.79756028      -7.69575468
H       -1.45635668      -3.89402503      -8.82207728
H       -2.14813544      -1.40596313      -7.16032133
H       -2.72212934      -1.71491882      -8.79093763
H       -0.38145368      -1.76815028      -9.64368080
H        0.23006346      -1.44277819      -8.01921344
H       -1.00843074       0.70894632      -7.94974549
H       -1.70366294       0.39123747      -9.53370866
H        0.55840165       0.44676887     -10.57864666
H        1.30318126       0.69174118      -8.99084917
H       -0.72771531       2.68718010      -9.68650963
H        2.63574507       5.70660499     -10.56935170
H        0.87259216       7.80064361     -10.56454575
C       -1.77731470       1.77731470       1.77731470
C       -2.31981189       2.98538962       1.40519272
C       -3.04448845       3.45501490       2.52778118
C       -2.90338191       2.50292057       3.51980977
O       -2.13192768       1.46919052       3.05364606
C       -3.41028101       2.46027272       4.87594038
O       -4.01609547       3.39088791       5.39806108
N       -3.15390162       1.27374432       5.53128443
C       -3.51715471       1.03523702       6.91080075
C       -5.02539275       0.92695932       7.14420996
C       -5.72842559      -0.15798382       6.32428105
C       -5.39519642      -1.58089371       6.77836564
C       -6.16849240      -2.60295944       5.94345807
C       -5.93214093      -4.03118244       6.41968609
N       -6.62901093      -4.97702850       5.57714637
C       -6.39968582      -6.33368547       5.64283039
O       -5.56286274      -6.82612770       6.39483219
C       -7.21974272      -7.11087244       4.73783842
C       -7.21676999      -8.45995906       4.43768506
C       -8.22355007      -8.66363908       3.46236148
C       -8.78917160      -7.43090062       3.23308025
Br     -10.18295277      -7.09339056       2.03991615
O       -8.18815639      -6.48091971       3.99776901
H       -2.20519239       3.47324056       0.44696325
H       -3.60540917       4.37603642       2.61871163
H       -2.61578595       0.57731560       5.02758944
H       -3.11771145       1.86213133       7.50919167
H       -3.00699761       0.12030506       7.22790439
H       -5.49691510       1.88753653       6.90580189
H       -5.20695641       0.75374740       8.21175518
H       -5.49537433      -0.04029442       5.25933999
H       -6.81095739      -0.00499259       6.42202099
H       -5.65360675      -1.69783072       7.83750875
H       -4.32053487      -1.77008190       6.68147520
H       -5.87231967      -2.51350391       4.89041415
H       -7.24250046      -2.38149730       5.98513097
H       -6.29609223      -4.16681319       7.44419710
H       -4.86415746      -4.27639522       6.40816450
H       -7.40211222      -4.67152372       4.99645635
H       -6.55228409      -9.19603397       4.87075152
H       -8.49872150      -9.59512349       2.98771197
C        1.77731470      -1.77731470       1.77731470
C        2.93583947      -2.40004425       1.37451050
C        3.40978805      -3.11772046       2.49977601
C        2.51228798      -2.88821404       3.52561022
O        1.51512718      -2.05754632       3.08209076
C        2.48146927      -3.37595922       4.88906562
O        3.27577651      -4.20248565       5.32678230
N        1.47749739      -2.82398147       5.65745151
C        1.22524543      -3.20949013       7.02845693
C        2.31833461      -2.77245618       8.00577125
C        2.59709777      -1.26735450       8.03027055
C        1.47487233      -0.44725239       8.67054364
C        1.84655757       1.03623497       8.69866843
C        0.79315474       1.87950110       9.40699093
N        1.14356660       3.28155215       9.36711434
C        0.25861494       4.27466986       9.72488565
O       -0.89705365       4.03758647      10.06620734
C        0.81237927       5.60971006       9.64403949
C        0.22734912       6.84985494       9.81700182
C        1.24096491       7.81413923       9.59544679
C        2.38636844       7.10710362       9.31208641
Br       4.05119806       7.86253899       8.94081929
O        2.13960052       5.77032446       9.33572963
H        3.38369629      -2.35018387       0.39151604
H        4.29631742      -3.73449142       2.56934838
H        0.84947786      -2.17509657       5.19611656
H        1.13125092      -4.30116441       7.05661912
H        0.25664546      -2.78623311       7.31232849
H        3.25421702      -3.28396473       7.75207177
H        2.04833161      -3.11074546       9.01338191
H        2.79686792      -0.90139681       7.01615518
H        3.51874254      -1.10527050       8.60397275
H        1.29777538      -0.80307460       9.69243478
H        0.54120593      -0.57806156       8.11266068
H        1.97747740       1.39954732       7.67129984
H        2.81292709       1.16839255       9.20159959
H        0.70274081       1.58876558      10.45950091
H       -0.18955741       1.75331409       8.93879823
H        2.10115208       3.56431010       9.19020287
H       -0.81234075       7.02272277      10.06206516
H        1.14385597       8.89000158       9.63745559
C       -0.00445707       0.01189536      -1.78238275
H       -0.66409135       0.67374010      -2.43557963
H        0.65740317      -0.63156657      -2.45157240
C       -0.90989263      -0.90692880      -0.91072765
C        0.90977584       0.90977584      -0.90977584
C       -0.00465871       1.77757030       0.00794375
H       -0.66225468       2.44313916      -0.64384735
H        0.64322798       2.43503045       0.67728295
C       -1.78241447       0.00034974      -0.00472694
H       -2.45427497      -0.65498947       0.64260836
H       -2.43311707       0.67328779      -0.65473579
C       -0.91132561       0.90220522       0.91563759
C       -0.01476271      -0.02253852       1.78660255
H       -0.67934791      -0.69751639       2.42135241
H        0.63392994       0.61504881       2.47327442
C        0.01484550      -1.77751727      -0.01636693
H        0.67870853      -2.42144646      -0.68295456
H       -0.62264859      -2.45592969       0.64226336
C        1.78714474       0.01002794       0.00389507
H        2.44202412       0.67113390       0.66197326
H        2.45385902      -0.65136977      -0.64189061
C        0.91606151      -0.90478549       0.90901405
