145
Properties=species:S:1:pos:R:3 pbc="F F F"
C        0.00000000       0.00000000       0.00000000
C        0.88131297       0.88131297      -0.88131297
C        2.25701644       0.91810672      -0.67188679
C        3.05982403       1.73187807      -1.47800843
C        2.49471605       2.50099493      -2.50342050
C        1.11185530       2.45377904      -2.69981315
C        0.30495273       1.64806920      -1.88922125
N        3.36417174       3.30511868      -3.26341497
C        3.05834244       4.05207668      -4.38741103
O        1.98474906       4.05130357      -4.98366757
C        4.17807219       4.87204106      -4.83543738
N        5.41328134       4.85963762      -4.22493136
N        6.19273048       5.73223852      -4.84736790
N        5.45586002       6.31943696      -5.81679358
C        6.01987738       7.40731075      -6.59199630
C        5.81010361       8.73914668      -5.91062586
C        6.77479546       9.24127432      -5.02327323
C        6.57784495      10.46377836      -4.37682013
C        5.41136315      11.18860058      -4.60868231
Br       5.14408369      12.84259686      -3.73339936
C        4.43765079      10.69989005      -5.47653776
C        4.63511505       9.47728920      -6.12326941
C        4.20062033       5.76417897      -5.89523015
N        3.25995051       6.11134720      -6.80742717
H        2.71416279       0.32142297       0.11287587
H        4.13194680       1.74704704      -1.29744775
H        0.62182200       3.04810694      -3.46483998
H       -0.76918160       1.63437799      -2.05486469
H        4.33367176       3.35598001      -2.96483626
H        5.56309059       7.40302174      -7.58753553
H        7.08755339       7.20272308      -6.73522227
H        7.68284368       8.67597053      -4.81916723
H        7.33465553      10.83546306      -3.69095777
H        3.52045698      11.25688016      -5.64994705
H        3.85645525       9.10121843      -6.78402220
H        2.39277185       5.56395298      -6.82172910
H        3.48993284       6.49049017      -7.72112256
C       -0.88131297      -0.88131297      -0.88131297
C       -1.71076058      -1.83623684      -0.30001253
C       -2.51200253      -2.64569565      -1.11201235
C       -2.49807173      -2.49626783      -2.50479192
C       -1.65887847      -1.53382756      -3.07274146
C       -0.84927546      -0.72899168      -2.26397604
N       -3.32080935      -3.35584237      -3.25605368
C       -3.55910151      -3.32003788      -4.61869077
O       -3.17293915      -2.45102803      -5.39575302
C       -4.35860534      -4.45062908      -5.07631621
N       -4.85448186      -5.41601827      -4.22735019
N       -5.50494548      -6.31338879      -4.95400263
N       -5.39495051      -5.94662283      -6.25051722
C       -5.91717054      -6.81091698      -7.29109690
C       -4.90150560      -7.84731197      -7.71105858
C       -4.86255435      -9.09923507      -7.07755359
C       -3.91402773     -10.05477426      -7.44964145
C       -2.99391093      -9.76150687      -8.45322823
Br      -1.70960744     -11.05402125      -8.95645123
C       -3.00985517      -8.51989898      -9.08432445
C       -3.95895109      -7.56451994      -8.71220263
C       -4.74076965      -4.74389626      -6.37536354
N       -4.53055989      -4.09911005      -7.54905493
H       -1.74153050      -1.96029996       0.77912059
H       -3.15205359      -3.38610032      -0.63828767
H       -1.59331221      -1.39409849      -4.14735822
H       -0.19799291       0.00667786      -2.72874603
H       -3.80274826      -4.09650523      -2.75523454
H       -6.21764451      -6.19234705      -8.14365631
H       -6.82924213      -7.28581543      -6.91044119
H       -5.56442115      -9.33460690      -6.27895339
H       -3.89726478     -11.01779193      -6.94601965
H       -2.28510300      -8.28311693      -9.85906427
H       -3.94603639      -6.59307905      -9.20258043
H       -4.10802453      -3.16565018      -7.50477923
H       -5.13821817      -4.20778524      -8.35554217
C       -0.88131297       0.88131297       0.88131297
C       -0.35319590       2.03006719       1.46374686
C       -1.16292519       2.83125091       2.27553443
C       -2.50478379       2.49623819       2.49810949
C       -3.01929787       1.33904880       1.90710082
C       -2.20951659       0.53051057       1.10221603
N       -3.25254372       3.34305010       3.33711157
C       -4.60818699       3.28175614       3.60788702
O       -5.41852480       2.53402129       3.06717411
C       -5.01757398       4.23653909       4.63143757
N       -4.14817404       5.12745547       5.22222081
N       -4.82038157       5.82639788       6.12555745
N       -6.09064084       5.36394267       6.13750705
C       -7.03276407       5.86940568       7.11701467
C       -6.95547133       5.09352364       8.41088118
C       -6.09270185       5.50987696       9.43676420
C       -6.00403726       4.78617298      10.62823321
C       -6.77288337       3.63737749      10.79838518
Br      -6.65254189       2.65726938      12.41026864
C       -7.62532083       3.20246261       9.78629516
C       -7.71406830       3.92675253       8.59485283
C       -6.28354957       4.40927409       5.16720579
N       -7.46839380       3.80513516       4.90519592
H        0.68299244       2.31064543       1.29505688
H       -0.73092596       3.72372677       2.72178885
H       -4.04539169       1.02247466       2.06690256
H       -2.62918818      -0.36952308       0.66039598
H       -2.75394583       4.09180845       3.80873375
H       -8.04136541       5.81954101       6.69274145
H       -6.81309257       6.93102187       7.28138430
H       -5.47263467       6.39592434       9.30942243
H       -5.32838766       5.12222382      11.41046488
H       -8.21721622       2.29929177       9.91077620
H       -8.37123629       3.56318967       7.80726991
H       -7.50688727       3.17333306       4.09823360
H       -8.36523129       4.24309789       5.09321639
C        0.88131297      -0.88131297       0.88131297
C        0.88395320      -0.70138445       2.26167231
C        1.69779211      -1.50726910       3.06464932
C        2.50118299      -2.50328157       2.49466692
C        2.48799321      -2.67024944       1.10720484
C        1.68220185      -1.85963366       0.30040767
N        3.30293547      -3.26473052       3.36503941
C        4.08077382      -4.36544603       3.05161030
O        4.11613881      -4.93787871       1.96570268
C        4.88613939      -4.82022590       4.17918534
N        4.83382099      -4.23737997       5.42664936
N        5.70293243      -4.85789028       6.21151419
N        6.32695032      -5.79807986       5.46706039
C        7.41921148      -6.56193426       6.03803869
C        8.73997173      -5.84768321       5.87222121
C        9.20167542      -4.97113632       6.86653127
C       10.41364622      -4.29441522       6.71038200
C       11.16826264      -4.48500626       5.55537714
Br      12.80801089      -3.56875444       5.34331458
C       10.71973558      -5.34157910       4.55276393
C        9.50766310      -6.01859197       4.70941860
C        5.80062906      -5.86085700       4.19854339
N        6.18785022      -6.74452680       3.24634785
H        0.26051330       0.06016387       2.72236046
H        1.68596996      -1.34999491       4.14047671
H        3.10935145      -3.41140013       0.61401734
H        1.69521690      -2.00192177      -0.77707758
H        3.32640264      -2.98647553       4.34160987
H        7.44657958      -7.54707234       5.55999594
H        7.19493709      -6.73291533       7.09764632
H        8.61266065      -4.79919188       7.76612890
H       10.75385387      -3.61750278       7.48971970
H       11.29996335      -5.48281913       3.64450172
H        9.16298959      -6.67002139       3.90868490
H        5.65964881      -6.75154646       2.36725866
H        6.58192656      -7.65469695       3.46492207
