153
Properties=species:S:1:pos:R:3 pbc="F F F"
C        0.00000000       0.00000000       0.00000000
C        0.88131297       0.88131297      -0.88131297
C        2.25701644       0.91810672      -0.67188679
C        3.05982403       1.73187807      -1.47800843
C        2.49471605       2.50099493      -2.50342050
C        1.11185530       2.45377904      -2.69981315
C        0.30495273       1.64806920      -1.88922125
N        3.36417174       3.30511868      -3.26341497
C        3.05834244       4.05207668      -4.38741103
O        1.98474906       4.05130357      -4.98366757
C        4.17807219       4.87204106      -4.83543738
N        5.41328134       4.85963762      -4.22493136
N        6.19273048       5.73223852      -4.84736790
N        5.45586002       6.31943696      -5.81679358
C        6.01987738       7.40731075      -6.59199630
C        5.81010361       8.73914668      -5.91062586
C        6.77479546       9.24127432      -5.02327323
C        6.57784495      10.46377836      -4.37682013
C        5.41136315      11.18860058      -4.60868231
C        4.43765079      10.69989005      -5.47653776
C        4.63511505       9.47728920      -6.12326941
C        4.20062033       5.76417897      -5.89523015
N        3.25995051       6.11134720      -6.80742717
H        2.71416279       0.32142297       0.11287587
H        4.13194680       1.74704704      -1.29744775
H        0.62182200       3.04810694      -3.46483998
H       -0.76918160       1.63437799      -2.05486469
H        4.33367176       3.35598001      -2.96483626
H        5.56309059       7.40302174      -7.58753553
H        7.08755339       7.20272308      -6.73522227
H        7.68284368       8.67597053      -4.81916723
H        7.33465553      10.83546306      -3.69095777
H        3.52045698      11.25688016      -5.64994705
H        3.85645525       9.10121843      -6.78402220
H        2.39277185       5.56395298      -6.82172910
H        3.48993284       6.49049017      -7.72112256
C        5.20775478      12.44858326      -3.94190853
C        5.03723277      13.50381875      -3.38348548
Br       4.76151310      15.21004529      -2.48056264
C       -0.88131297      -0.88131297      -0.88131297
C       -0.70261063      -0.88256578      -2.26183354
C       -1.51666264      -1.68716339      -3.06588450
C       -2.50220063      -2.50240606      -2.49452479
C       -2.66964662      -2.48867531      -1.10712557
C       -1.86334555      -1.67800187      -0.30089576
N       -3.29087882      -3.27334885      -3.36847772
C       -4.23544358      -4.22787066      -3.03451591
O       -4.46871005      -4.64699977      -1.90401038
C       -4.95852254      -4.72965774      -4.19737035
N       -4.68871699      -4.32313640      -5.48599692
N       -5.53527428      -4.93647733      -6.30058531
N       -6.35687965      -5.69467238      -5.54053853
C       -7.46627508      -6.39595637      -6.15695298
C       -8.69363116      -5.51980214      -6.24644285
C       -8.92104953      -4.73237710      -7.38591638
C      -10.04500755      -3.90689245      -7.46654343
C      -10.94515532      -3.85865055      -6.40484017
C      -10.72907875      -4.62381856      -5.26118129
C       -9.60500052      -5.44966768      -5.18100546
C       -5.99180841      -5.65245848      -4.21576255
N       -6.59663969      -6.35518343      -3.22690176
H        0.06280840      -0.26350555      -2.72201272
H       -1.36150718      -1.67294391      -4.14199049
H       -3.43409350      -3.08367406      -0.61700135
H       -2.01792481      -1.67710957       0.77497330
H       -3.16617409      -3.12307501      -4.36523893
H       -7.67553818      -7.30122142      -5.57688827
H       -7.14623511      -6.72726875      -7.15199489
H       -8.21566053      -4.74695101      -8.21536990
H      -10.20322023      -3.30216206      -8.35569406
H      -11.42282814      -4.57888598      -4.42557008
H       -9.44153784      -6.02703870      -4.27311933
H       -6.17792029      -6.30870269      -2.29183096
H       -7.07764568      -7.23485591      -3.38904399
C      -12.10357600      -3.00727188      -6.48739869
C      -13.07375331      -2.29424225      -6.55654144
Br     -14.64244797      -1.14133363      -6.66833944
C       -0.88131297       0.88131297       0.88131297
C       -0.33569390       1.99136379       1.51995227
C       -1.14577688       2.79248901       2.33144464
C       -2.50483821       2.49646906       2.49782421
C       -3.03685538       1.37781059       1.85078152
C       -2.22720072       0.56910870       1.04593376
N       -3.25244310       3.34014513       3.34011717
C       -4.61785587       3.31640809       3.56356619
O       -5.43351725       2.61521034       2.97099262
C       -5.03021961       4.25022127       4.60510976
N       -4.15253500       5.09075464       5.25456067
N       -4.83177771       5.78200840       6.15855079
N       -6.11632547       5.36321593       6.11254916
C       -7.07419824       5.86793666       7.07704954
C       -7.06704350       5.04741668       8.34541598
C       -6.22661730       5.39973707       9.41298863
C       -6.20286551       4.63433896      10.58123897
C       -7.01473313       3.50756069      10.68635222
C       -7.84592678       3.13588873       9.63226310
C       -7.86974285       3.90187406       8.46405675
C       -6.30739385       4.44839385       5.10424174
N       -7.50192940       3.89422888       4.78256660
H        0.71439434       2.24170132       1.39540289
H       -0.69999093       3.65435905       2.82209161
H       -4.07774866       1.09146663       1.96555363
H       -2.66107543      -0.30087993       0.55986558
H       -2.74576552       4.05533810       3.85338442
H       -8.06876496       5.86675226       6.61813064
H       -6.82523388       6.91537139       7.28489347
H       -5.57353254       6.26774625       9.33670265
H       -5.54365706       4.92093411      11.39648518
H       -8.47134110       2.24990487       9.70603822
H       -8.51121888       3.58734210       7.64313489
H       -7.53365795       3.29120220       3.95359378
H       -8.38967948       4.35619928       4.95566682
C       -6.98998366       2.71795474      11.89030816
C       -6.96925598       2.05665975      12.89862126
Br      -6.93574107       0.98740170      14.52897827
C        0.88131297      -0.88131297       0.88131297
C        1.43569704      -0.36303137       2.04828154
C        2.24762541      -1.17258287       2.84950225
C        2.49825272      -2.50475046       2.49612830
C        1.93520698      -3.00943281       1.32080771
C        1.13030026      -2.19959143       0.51235150
N        3.33559078      -3.25266716       3.34444746
C        3.63010877      -4.60242254       3.26529884
O        3.11554733      -5.40890186       2.49527102
C        4.64446581      -5.01082371       4.23026111
N        5.20572146      -4.14687891       5.14524994
N        6.10855149      -4.81571257       5.84807284
N        6.14951587      -6.07764139       5.36493331
C        7.13623680      -7.01180089       5.87114673
C        8.44127849      -6.90007359       5.11852408
C        9.44547510      -6.02757664       5.56629127
C       10.64709331      -5.90705233       4.86429780
C       10.84913572      -6.65354514       3.70596518
C        9.85886152      -7.51517254       3.24004454
C        8.65726169      -7.63578911       3.94262286
C        5.19852290      -6.27048929       4.39101725
N        4.96651114      -7.44917567       3.76303807
H        1.24498216       0.66535813       2.34308585
H        2.67172441      -0.74833421       3.75638296
H        2.11746178      -4.02727214       0.99003500
H        0.71055206      -2.61131539      -0.40180637
H        3.78630772      -2.75900118       4.10917914
H        6.72987276      -8.02630149       5.79747362
H        7.27930302      -6.80732931       6.93886641
H        9.29308034      -5.42469331       6.46020778
H       11.41218249      -5.22430312       5.22459075
H       10.00820574      -8.08965120       2.32942726
H        7.88696701      -8.29968759       3.55504128
H        4.17087295      -7.49038025       3.11720074
H        5.16232014      -8.35002025       4.18920518
C       12.08750532      -6.52902411       2.98171713
C       13.12463986      -6.42473775       2.37515939
Br      14.80159870      -6.25611552       1.39440682
