166
Properties=species:S:1:pos:R:3 pbc="F F F"
C        1.79121699       1.79121699      -1.79121699
C        3.16692047       1.82801075      -1.58179081
C        3.96972805       2.64178210      -2.38791245
C        3.40462007       3.41089896      -3.41332452
C        2.02175932       3.36368307      -3.60971718
C        1.21485676       2.55797323      -2.79912527
N        4.27407577       4.21502270      -4.17331900
C        3.96824647       4.96198070      -5.29731505
O        2.89465308       4.96120759      -5.89357160
C        5.08797621       5.78194509      -5.74534141
N        6.32318536       5.76954164      -5.13483538
N        7.10263451       6.64214255      -5.75727192
N        6.36576404       7.22934099      -6.72669761
C        6.92978140       8.31721478      -7.50190032
C        6.72000763       9.64905070      -6.82052989
C        7.68469949      10.15117834      -5.93317725
C        7.48774897      11.37368239      -5.28672415
C        6.32126717      12.09850460      -5.51858634
Br       6.05398772      13.75250088      -4.64330338
C        5.34755482      11.60979408      -6.38644178
C        5.54501908      10.38719322      -7.03317343
C        5.11052436       6.67408299      -6.80513417
N        4.16985454       7.02125122      -7.71733119
H        3.62406681       1.23132699      -0.79702815
H        5.04185083       2.65695106      -2.20735177
H        1.53172602       3.95801096      -4.37474400
H        0.14072242       2.54428202      -2.96476871
H        5.24357579       4.26588403      -3.87474029
H        6.47299462       8.31292577      -8.49743955
H        7.99745742       8.11262710      -7.64512629
H        8.59274770       9.58587455      -5.72907126
H        8.24455955      11.74536708      -4.60086179
H        4.43036101      12.16678419      -6.55985108
H        4.76635927      10.01112245      -7.69392622
H        3.30267588       6.47385700      -7.73163313
H        4.39983687       7.40039420      -8.63102658
C       -1.79121699      -1.79121699      -1.79121699
C       -2.66687520      -2.70238454      -1.20746229
C       -3.46804854      -3.51216849      -2.01920557
C       -3.40771831      -3.40638141      -3.41474383
C       -2.52249160      -2.48758387      -3.98508410
C       -1.71301092      -1.68276948      -3.17617486
N       -4.23374005      -4.26371071      -4.16496671
C       -4.42981768      -4.26294109      -5.53478346
O       -3.99381677      -3.43036274      -6.32525276
C       -5.24982128      -5.38264912      -5.98279231
N       -5.80057325      -6.30600106      -5.12098807
N       -6.45638861      -7.20549902      -5.84016136
N       -6.29624878      -6.88248024      -7.14307362
C       -6.81349720      -7.76249142      -8.17290788
C       -5.81823460      -8.84138934      -8.52996429
C       -5.83705439     -10.07372140      -7.85827929
C       -4.90780300     -11.06834326      -8.17200925
C       -3.94935678     -10.83400092      -9.15500041
Br      -2.69112970     -12.17941630      -9.57924598
C       -3.90794271      -9.61259029      -9.82325767
C       -4.83776884      -8.61811031      -9.50950659
C       -5.60172481      -5.70436154      -7.28365518
N       -5.33654836      -5.10278834      -8.46910025
H       -2.73383339      -2.79202750      -0.12656106
H       -4.14462248      -4.21802665      -1.54350453
H       -2.42042029      -2.38319387      -5.06086683
H       -1.02563109      -0.98170205      -3.64244002
H       -4.75316968      -4.97373280      -3.65729762
H       -7.06897648      -7.16185338      -9.05253007
H       -7.75083333      -8.19780708      -7.80657041
H       -6.56951188     -10.26311151      -7.07507012
H       -4.93595644     -12.01539031      -7.63944168
H       -3.15329341      -9.42173984     -10.58196301
H       -4.78010215      -7.66312865     -10.02817715
H       -4.88685859      -4.18150412      -8.43980329
H       -5.92280539      -5.21807762      -9.29037463
C       -1.79121699       1.79121699       1.79121699
C       -1.70315577       1.69634167       3.17722458
C       -2.51713427       2.50158910       3.98069923
C       -3.41159166       3.41277894       3.40447295
C       -3.48875668       3.49491334       2.01148954
C       -2.68272780       2.68425306       1.20497439
N       -4.20691450       4.17857488       4.27692809
C       -5.06751738       5.21128864       3.94873620
O       -5.20050097       5.71312125       2.83581005
C       -5.83280783       5.68705260       5.09540228
N       -5.67296863       5.18571985       6.36887391
N       -6.53171201       5.80195100       7.16838596
N       -7.25408275       6.65717983       6.41054006
C       -8.35631059       7.39026344       7.00232248
C       -9.63819612       6.59215918       6.95923292
C       -9.98717257       5.75299101       8.02889150
C      -11.16239594       4.99915474       7.98660483
C      -11.99267333       5.07475515       6.87092963
Br     -13.58270852       4.05412303       6.81296043
C      -11.65608228       5.89275095       5.79495745
C      -10.48074629       6.64691479       5.83772466
C       -6.80668893       6.67239624       5.11065636
N       -7.30163058       7.47224561       4.13456075
H       -1.00868317       1.00170205       3.64203673
H       -2.43362627       2.41146542       5.06106197
H       -4.18178109       4.16735680       1.51534310
H       -2.76660204       2.75927342       0.12389769
H       -4.15688747       3.95978201       5.26753063
H       -8.47152634       8.34103906       6.47079453
H       -8.08215079       7.63849839       8.03456164
H       -9.33779266       5.67076576       8.89913510
H      -11.41494535       4.35275470       8.82308837
H      -12.29532537       5.94435708       4.91731382
H      -10.22342056       7.26686917       4.98111821
H       -6.82647110       7.45586903       3.22582588
H       -7.73745446       8.36983232       4.32397087
C        1.79121699      -1.79121699       1.79121699
C        1.22463239      -2.83559806       2.51649158
C        2.03525351      -3.63667581       3.32749328
C        3.41479237      -3.40675799       3.40729319
C        3.96780019      -2.35348739       2.67387198
C        3.15835762      -1.54453514       1.86906250
N        4.16259183      -4.24528534       4.25454030
C        5.53753521      -4.28429046       4.40571655
O        6.35483993      -3.65991359       3.73467876
C        5.95721645      -5.18421985       5.47382640
N        5.07397350      -5.94124042       6.21234847
N        5.76480888      -6.62087989       7.11636021
N        7.06482981      -6.27542895       6.98154387
C        8.04641227      -6.78108044       7.92140379
C        8.15047278      -5.89712023       9.14199521
C        7.35225828      -6.14777837      10.26901843
C        7.43148831      -5.32304216      11.39362505
C        8.30484737      -4.23812375      11.39538699
Br       8.41173186      -3.12130636      12.91675377
C        9.09558499      -3.96697197      10.28123371
C        9.01639120      -4.79229498       9.15669956
C        7.24771382      -5.42551204       5.91651566
N        8.44997199      -4.95438252       5.50408244
H        0.15782587      -3.03459427       2.46000181
H        1.57296866      -4.44662288       3.88656212
H        5.02676163      -2.11859004       2.71912933
H        3.60943180      -0.72560915       1.31473221
H        3.64837321      -4.90449307       4.83133383
H        9.01331250      -6.85758551       7.41246193
H        7.75546881      -7.80133745       8.19840455
H        6.65213620      -6.98179622      10.27376109
H        6.80365934      -5.53100761      12.25612149
H        9.76890408      -3.11365582      10.27443637
H        9.62766866      -4.55580012       8.28793916
H        8.46764171      -4.39748736       4.64303693
H        9.32083101      -5.45437212       5.65605452
C       -0.00445707       0.01189536      -1.78238275
H       -0.66409135       0.67374010      -2.43557963
H        0.65740317      -0.63156657      -2.45157240
C       -0.90989263      -0.90692880      -0.91072765
C        0.90977584       0.90977584      -0.90977584
C       -0.00465871       1.77757030       0.00794375
H       -0.66225468       2.44313916      -0.64384735
H        0.64322798       2.43503045       0.67728295
C       -1.78241447       0.00034974      -0.00472694
H       -2.45427497      -0.65498947       0.64260836
H       -2.43311707       0.67328779      -0.65473579
C       -0.91132561       0.90220522       0.91563759
C       -0.01476271      -0.02253852       1.78660255
H       -0.67934791      -0.69751639       2.42135241
H        0.63392994       0.61504881       2.47327442
C        0.01484550      -1.77751727      -0.01636693
H        0.67870853      -2.42144646      -0.68295456
H       -0.62264859      -2.45592969       0.64226336
C        1.78714474       0.01002794       0.00389507
H        2.44202412       0.67113390       0.66197326
H        2.45385902      -0.65136977      -0.64189061
C        0.91606151      -0.90478549       0.90901405
