193
Properties=species:S:1:pos:R:3 pbc="F F F"
C        0.00000000       0.00000000       0.00000000
C       -0.75572797       3.83909954      -3.39756511
O        0.59052436       3.41084338      -3.56839255
C        1.09294052       2.55713703      -2.61816473
C        0.29249475       1.74409129      -1.80734491
C        0.88262632       0.88262632      -0.88262632
C        2.26533881       0.81268369      -0.75877720
C        3.06903387       1.61120064      -1.57185519
C        2.50026479       2.49312728      -2.51121188
C        3.43163213       3.35274332      -3.35887243
H        4.46428247       3.07905153      -3.09953153
C        3.26077376       4.83729127      -3.03271382
C        4.16132295       5.63324681      -3.93574430
O        4.89370920       6.51059173      -3.48139110
C        4.00712919       5.37199915      -5.42346509
H        3.00551845       5.72663933      -5.68995894
C        5.02439978       6.18547112      -6.22663233
C        4.15817268       3.85045467      -5.64386858
H        5.18563880       3.57969090      -5.35996899
N        3.27498715       3.04668749      -4.78447357
C        3.96366279       3.43408862      -7.10127256
C        5.04252814       2.82931219      -7.77586408
C        4.92719913       2.43946764      -9.10972393
C        3.72617294       2.64022976      -9.77998992
C        2.63994363       3.23029211      -9.13419549
C        2.75467024       3.63832804      -7.80018636
O        1.72026439       4.19575766      -7.09145444
C        0.74351305       4.90024620      -7.85044774
H       -0.94331184       4.63856217      -4.12095966
H       -0.91727057       4.25119506      -2.39557818
H       -1.45804270       3.02782015      -3.61146134
H       -0.78844213       1.75323819      -1.89279877
H        2.72745482       0.13892367      -0.04216200
H        4.15027723       1.53865081      -1.47034256
H        3.53692421       5.03105079      -1.98997815
H        2.24219391       5.20482735      -3.17903785
H        6.05120025       5.89096394      -5.98311858
H        4.92758168       7.25455127      -6.00666862
H        4.87705787       6.06127804      -7.30382596
H        2.30120190       3.22152721      -5.05559598
H        5.98486265       2.65449871      -7.25999488
H        5.77330835       1.97452009      -9.60866740
H        1.70863937       3.34370225      -9.67809225
H        0.08748132       4.20733292      -8.38571718
H        1.21026044       5.61532210      -8.53671532
H        0.12478181       5.46752235      -7.14835796
C        3.60016742       2.22574344     -11.15327929
C        3.49463781       1.87861115     -12.30340914
Br       3.32400534       1.31732760     -14.16307184
C       -3.65199542       0.76666827      -3.59560953
O       -3.72318280      -0.60878739      -3.23779009
C       -2.69859248      -1.10121167      -2.46843813
C       -1.88707169      -0.30085506      -1.65600419
C       -0.88262632      -0.88262632      -0.88262632
C       -0.67896203      -2.25751987      -0.90031780
C       -1.49170802      -3.06204693      -1.69833476
C       -2.51076064      -2.50129585      -2.49254747
C       -3.35450878      -3.43173535      -3.35700374
H       -3.02318949      -4.46101612      -3.15865992
C       -3.12533304      -3.16067256      -4.84477324
C       -4.02225945      -4.06712570      -5.64092891
O       -3.58017587      -4.72236266      -6.58315350
C       -5.49845433      -4.01452325      -5.28961585
H       -5.83991233      -3.01214172      -5.57006267
C       -6.29043282      -5.03053707      -6.11553334
C       -5.62115024      -4.26170835      -3.76963734
H       -5.26580746      -5.28422898      -3.57526225
N       -4.76630741      -3.37553634      -2.96430446
C       -7.06030504      -4.17569401      -3.26302492
C       -7.63806967      -5.32370460      -2.68593014
C       -8.95126388      -5.30795524      -2.21717158
C       -9.69720602      -4.13880668      -2.31037991
C       -9.14769366      -2.98594444      -2.87079312
C       -7.83544409      -3.00008295      -3.35765760
O       -7.21844132      -1.89700599      -3.89202917
C       -8.06983461      -0.92884443      -4.49552795
H       -4.42998543       0.95550769      -4.34173224
H       -2.68614809       1.00878160      -4.05213619
H       -3.85659090       1.40958303      -2.73423091
H       -2.03230403       0.77212466      -1.59741545
H        0.10006085      -2.71348098      -0.29512036
H       -1.32675639      -4.13788739      -1.69462682
H       -2.08204173      -3.36449049      -5.11142093
H       -3.34869413      -2.13366256      -5.14370243
H       -5.97399865      -6.05605544      -5.89522868
H       -6.13881822      -4.86234281      -7.18764054
H       -7.36503303      -4.95329071      -5.92383813
H       -5.10036749      -2.41106097      -3.06689663
H       -7.06178414      -6.24256434      -2.59500777
H       -9.37491215      -6.20602222      -1.77556147
H       -9.74773035      -2.08309409      -2.89960943
H       -8.59911886      -0.34427673      -3.73713583
H       -8.76986886      -1.39471230      -5.19771669
H       -7.43713787      -0.23994867      -5.06357558
C      -11.04885448      -4.11607015      -1.81426552
C      -12.18086007      -4.09702832      -1.39876972
Br     -14.01121736      -4.06623927      -0.72694815
C        0.19696340       4.84182884       1.83607124
O       -0.82558934       4.17597548       2.56819547
C       -1.22020528       2.94711165       2.10092534
C       -0.41797167       2.13167070       1.29428857
C       -0.88262632       0.88262632       0.88262632
C       -2.13740530       0.42810174       1.27129266
C       -2.93692969       1.23039960       2.08476042
C       -2.49501606       2.49764526       2.51194263
C       -3.42240417       3.33502051       3.38582320
H       -4.32418744       2.73742164       3.58125644
C       -3.86871282       4.60408107       2.65798495
C       -4.73211336       5.41109178       3.58710892
O       -5.81392302       5.85990886       3.21186014
C       -4.12712585       5.73362581       4.94184177
H       -3.27982455       6.39897017       4.74332200
C       -5.12713854       6.49218580       5.81717889
C       -3.67664105       4.39923226       5.57662263
H       -4.58095108       3.79700565       5.74734195
N       -2.81519813       3.59603636       4.69491371
C       -2.98873099       4.58132279       6.92897019
C       -3.58146235       3.99938207       8.06686000
C       -3.00538789       4.14233260       9.32867022
C       -1.82269864       4.85999492       9.46369905
C       -1.21093184       5.44056492       8.35293446
C       -1.79285256       5.31413326       7.08619882
O       -1.23231247       5.83022330       5.94494072
C       -0.40561095       6.97705710       6.11153893
H        0.26924400       5.86325293       2.22220105
H       -0.05341924       4.90456348       0.77151995
H        1.16801727       4.36110301       1.98815304
H        0.57599071       2.44193145       0.99165409
H       -2.49966340      -0.54662067       0.95549776
H       -3.91307187       0.85722729       2.38897143
H       -4.44816931       4.34531404       1.76446981
H       -3.04085570       5.24337463       2.34182879
H       -6.01238805       5.88279893       6.03009579
H       -5.46845613       7.40469097       5.31565447
H       -4.67955951       6.79334314       6.76925922
H       -1.92906041       4.09370526       4.55555943
H       -4.50084594       3.42419062       7.97431968
H       -3.48109006       3.68386843      10.19153734
H       -0.27300515       5.96734438       8.49008433
H        0.56325244       6.70373657       6.54004730
H       -0.90380210       7.74459879       6.71389697
H       -0.22201965       7.39969297       5.11894949
C       -1.21845506       4.99716099      10.76357411
C       -0.71240106       5.11203758      11.85221947
Br       0.10584547       5.29778331      13.61246694
C        4.64776658      -2.25286126      -0.41969116
O        4.01619201      -2.84268164       0.71088664
C        2.86612897      -2.24252344       1.15958987
C        2.05112385      -1.43478795       0.35801915
C        0.88262632      -0.88262632       0.88262632
C        0.50781599      -1.13109980       2.19788391
C        1.30899803      -1.94471016       2.99838151
C        2.49629571      -2.51205271       2.49625553
C        3.33849012      -3.37860411       3.42615364
H        2.80661471      -3.45070032       4.38555049
C        4.69436194      -2.72901519       3.70740172
C        5.49658331      -3.65287594       4.58085481
O        6.06432420      -3.23340205       5.58796578
C        5.65865123      -5.07359824       4.07034396
H        6.26271177      -4.99993850       3.15946646
C        6.42865483      -5.92914778       5.07870062
C        4.24485342      -5.62550569       3.78213682
H        3.71054196      -5.67246103       4.74229570
N        3.44285777      -4.74891100       2.91437944
C        4.26053063      -7.03838256       3.20011078
C        3.64364860      -8.07220985       3.93184596
C        3.63713012      -9.38301873       3.45624185
C        4.23825338      -9.67150818       2.23663105
C        4.85001327      -8.66600306       1.48841489
C        4.87382587      -7.35125362       1.96810514
O        5.42831861      -6.30592132       1.27323656
C        6.48364277      -6.63442938       0.37613484
H        5.62572064      -2.72934231      -0.53885297
H        4.81522847      -1.18117634      -0.26690215
H        4.07535516      -2.43923811      -1.33335448
H        2.29816402      -1.23891638      -0.67948557
H       -0.40450858      -0.70565310       2.60739597
H        0.99782539      -2.13817404       4.02327117
H        4.55715989      -1.77384622       4.22694704
H        5.28346492      -2.53475949       2.80783471
H        5.88228286      -6.01890290       6.02409701
H        7.40360742      -5.48213470       5.30305944
H        6.61462100      -6.93573173       4.69180914
H        3.87240425      -4.72274446       1.98317638
H        3.15819019      -7.85881159       4.88235446
H        3.15452745     -10.16344330       4.03852509
H        5.28229310      -8.92103121       0.52710955
H        6.09567110      -7.11291161      -0.52805129
H        7.24116560      -7.25909761       0.86203465
H        6.96582610      -5.69911624       0.07571977
C        4.22058774     -11.02184629       1.73675613
C        4.20579277     -12.15275445       1.31811088
Br       4.18187055     -13.98133729       0.64119693
