166
Properties=species:S:1:pos:R:3 pbc="F F F"
C        1.79159402       1.79159402      -1.79159402
C        1.42824177       3.11532513      -2.02901137
C        2.23419539       3.92348319      -2.83822147
C        3.40691869       3.41239386      -3.41468061
C        3.76126943       2.08005393      -3.15462676
C        2.95572053       1.26929359      -2.34954753
C        4.26797209       4.23041189      -4.26242069
C        3.82093392       5.27301556      -5.05042373
S        5.13157222       5.97577505      -5.90146132
C        6.19925212       4.83655079      -5.17657395
C        7.66683903       4.87368639      -5.47940789
C        8.01517735       4.05645270      -6.68653274
S        8.44923059       2.40178533      -6.52329002
C        8.66501014       2.30315128      -8.22094001
C        8.39952584       3.52171888      -8.81464319
N        8.04197982       4.52409506      -7.91830816
C        8.46918745       3.79299634     -10.25249113
C        8.86466531       2.82256432     -11.18650889
C        8.91151692       3.11947686     -12.55432506
C        8.56334731       4.39147849     -13.00043047
Br       8.62535298       4.78942475     -14.84676280
C        8.16973862       5.36982880     -12.09317794
C        8.12387688       5.06922668     -10.72764819
N        5.63100601       3.98400069      -4.34690439
H        0.52563029       3.52985856      -1.58753603
H        1.93911328       4.95817261      -2.99363174
H        4.67092414       1.66474150      -3.58500872
H        3.24744342       0.23898259      -2.16620258
H        2.81701143       5.64879955      -5.18117526
H        8.22163649       4.51700533      -4.60260264
H        7.99613089       5.90790683      -5.64016295
H        8.96375305       1.36766934      -8.66915073
H        9.14396496       1.81929822     -10.87762501
H        9.21962955       2.35100709     -13.25854394
H        7.89548379       6.36556845     -12.43102417
H        7.81124849       5.84546099     -10.03113006
C       -1.79159402      -1.79159402      -1.79159402
C       -3.04251442      -1.33234094      -2.19772291
C       -3.85199066      -2.14003078      -3.00387860
C       -3.41548131      -3.41098525      -3.40752660
C       -2.14805794      -3.85083923      -2.99705296
C       -1.33885234      -3.04733812      -2.18837119
C       -4.23650696      -4.27600007      -4.24829763
C       -5.61773903      -4.27497790      -4.25165628
S       -6.20769499      -5.43703983      -5.36407377
C       -4.58803501      -5.87192571      -5.75241615
C       -4.31212898      -6.92719758      -6.78060675
C       -4.27365428      -8.30125904      -6.18324946
S       -2.79290615      -8.96438570      -5.61701409
C       -3.61928313     -10.39852062      -5.17129768
C       -4.96292478     -10.29777453      -5.47518860
N       -5.32156953      -9.09235359      -6.07045993
C       -5.96684887     -11.33242351      -5.21540254
C       -5.64148356     -12.57753501      -4.65471995
C       -6.63208271     -13.53805877      -4.41517736
C       -7.95844428     -13.26148801      -4.73532397
Br      -9.29385849     -14.55825638      -4.40942566
C       -8.30447194     -12.03503118      -5.29324224
C       -7.31207951     -11.07799497      -5.53067727
N       -3.65615339      -5.19919005      -5.10656765
H       -3.39568601      -0.34890824      -1.89843062
H       -4.81611537      -1.75200611      -3.32279615
H       -1.78566632      -4.83019726      -3.30481077
H       -0.36314283      -3.41097801      -1.87850774
H       -6.30188742      -3.67720995      -3.66788887
H       -3.36172693      -6.69999015      -7.27952738
H       -5.07599786      -6.90040257      -7.56780025
H       -3.07387578     -11.21104063      -4.71565670
H       -4.61839262     -12.83072286      -4.39177271
H       -6.35582362     -14.49447452      -3.97888245
H       -9.33681632     -11.80898937      -5.54627072
H       -7.60005850     -10.12227317      -5.96550787
C       -1.79159402       1.79159402       1.79159402
C       -2.95062095       1.26482806       2.35712927
C       -3.76021791       2.07220931       3.16347282
C       -3.41574937       3.41024790       3.40799588
C       -2.23885600       3.91882727       2.83826686
C       -1.43016083       3.11532736       2.02907345
C       -4.23931509       4.27680554       4.24468403
C       -5.60805538       4.15334867       4.38296917
S       -6.20743311       5.36141522       5.43996026
C       -4.60989885       5.97437602       5.62810200
C       -4.34805514       7.14532615       6.52655202
C       -4.49717865       8.45245016       5.80853397
S       -3.14447386       9.18610008       5.04373201
C       -4.14326374      10.49070513       4.55513256
C       -5.43829260      10.30108302       4.99651230
N       -5.62318754       9.13246081       5.72873470
C       -6.55754230      11.21207292       4.74505971
C       -6.40643640      12.42045740       4.04684472
C       -7.50344081      13.26113207       3.82074596
C       -8.76272827      12.90034791       4.29218009
Br     -10.24203576      14.03524223       3.98426253
C       -8.93638277      11.70834827       4.98801432
C       -7.83812865      10.87108422       5.21153888
N       -3.67789631       5.32729999       4.95671479
H       -3.23127963       0.22939075       2.18235449
H       -4.64966685       1.63302470       3.60822607
H       -1.94790770       4.95187169       3.02089497
H       -0.52604278       3.53225447       1.59433133
H       -6.27973544       3.44300388       3.92424692
H       -3.33944275       7.05330024       6.94850147
H       -5.03264949       7.12773128       7.38381991
H       -3.72246700      11.30010064       3.97800548
H       -5.44039694      12.73669200       3.66379924
H       -7.36176634      14.19112900       3.27628524
H       -9.91512686      11.41723105       5.35971850
H       -7.99161831       9.94059045       5.75563077
C        1.79159402      -1.79159402       1.79159402
C        1.24343330      -2.90539703       2.42374794
C        2.04977065      -3.71278741       3.23334198
C        3.40778925      -3.41055230       3.41565161
C        3.94342080      -2.29084143       2.76168790
C        3.13903105      -1.48026532       1.95526527
C        4.27406575      -4.23352377       4.25321515
C        3.84208668      -4.95011462       5.35217191
S        5.15780749      -5.77705027       6.07395083
C        6.21257427      -5.11339860       4.88640399
C        7.67106705      -5.45935807       4.88950818
C        8.46933338      -4.53286612       5.75596328
S        9.16925124      -3.10885904       5.09619567
C        9.82266793      -2.73117709       6.63525641
C        9.47827813      -3.69906041       7.55854938
N        8.71295711      -4.73644714       7.03497880
C        9.85380486      -3.68645639       8.97441367
C       10.65819000      -2.68138296       9.53416556
C       10.98929003      -2.70125640      10.89477242
C       10.51862084      -3.72827061      11.70836482
Br      10.96494876      -3.75209713      13.54449463
C        9.72119531      -4.73596972      11.17558032
C        9.39234730      -4.71239751       9.81600695
N        5.63494990      -4.32820193       3.99875926
H        0.19453946      -3.15761151       2.29087390
H        1.60319301      -4.58660909       3.70111553
H        4.99633132      -2.04188577       2.88245726
H        3.57448793      -0.61531522       1.46282543
H        2.84977919      -5.02578631       5.77142074
H        8.04566416      -5.43708619       3.85849411
H        7.81700143      -6.48961802       5.23758123
H       10.40560593      -1.83169799       6.76326920
H       11.04472963      -1.86395318       8.93220537
H       11.61252079      -1.91114437      11.30551543
H        9.34826052      -5.54176911      11.80204679
H        8.76523974      -5.50718023       9.41541957
C       -0.00445707       0.01189536      -1.78238275
H       -0.66409135       0.67374010      -2.43557963
H        0.65740317      -0.63156657      -2.45157240
C       -0.90989263      -0.90692880      -0.91072765
C        0.90977584       0.90977584      -0.90977584
C       -0.00465871       1.77757030       0.00794375
H       -0.66225468       2.44313916      -0.64384735
H        0.64322798       2.43503045       0.67728295
C       -1.78241447       0.00034974      -0.00472694
H       -2.45427497      -0.65498947       0.64260836
H       -2.43311707       0.67328779      -0.65473579
C       -0.91132561       0.90220522       0.91563759
C       -0.01476271      -0.02253852       1.78660255
H       -0.67934791      -0.69751639       2.42135241
H        0.63392994       0.61504881       2.47327442
C        0.01484550      -1.77751727      -0.01636693
H        0.67870853      -2.42144646      -0.68295456
H       -0.62264859      -2.45592969       0.64226336
C        1.78714474       0.01002794       0.00389507
H        2.44202412       0.67113390       0.66197326
H        2.45385902      -0.65136977      -0.64189061
C        0.91606151      -0.90478549       0.90901405
