153
Properties=species:S:1:pos:R:3 pbc="F F F"
C        0.00000000       0.00000000       0.00000000
C        0.88169000       0.88169000      -0.88169000
C        0.51833774       2.20542111      -1.11910735
C        1.32429136       3.01357916      -1.92831744
C        2.49701466       2.50248983      -2.50477659
C        2.85136541       1.17014991      -2.24472274
C        2.04581650       0.35938956      -1.43964351
C        3.35806806       3.32050786      -3.35251666
C        2.91102990       4.36311154      -4.14051971
S        4.22166819       5.06587103      -4.99155730
C        5.28934810       3.92664676      -4.26666993
C        6.75693500       3.96378237      -4.56950386
C        7.10527332       3.14654867      -5.77662872
S        7.53932657       1.49188131      -5.61338599
C        7.75510611       1.39324726      -7.31103599
C        7.48962182       2.61181485      -7.90473917
N        7.13207580       3.61419104      -7.00840414
C        7.55928343       2.88309231      -9.34258710
C        7.95476129       1.91266030     -10.27660486
C        8.00161290       2.20957283     -11.64442103
C        7.65344329       3.48157447     -12.09052644
C        7.25983459       4.45992478     -11.18327391
C        7.21397286       4.15932266      -9.81774416
N        4.72110198       3.07409667      -3.43700037
H       -0.38427374       2.61995453      -0.67763200
H        1.02920926       4.04826859      -2.08372771
H        3.76102011       0.75483748      -2.67510469
H        2.33753940      -0.67092144      -1.25629855
H        1.90710741       4.73889553      -4.27127124
H        7.31173247       3.60710131      -3.69269861
H        7.08622686       4.99800281      -4.73025893
H        8.05384903       0.45776531      -7.75924671
H        8.23406093       0.90939420      -9.96772098
H        8.30972553       1.44110306     -12.34863992
H        6.98557976       5.45566443     -11.52112014
H        6.90134446       4.93555696      -9.12122604
C        7.70069199       3.78481198     -13.49744313
C        7.74026278       4.03877340     -14.67573586
Br       7.80424540       4.44940754     -16.58093554
C       -0.88169000      -0.88169000      -0.88169000
C       -2.19478275      -0.50016159      -1.14792186
C       -3.00411640      -1.30812377      -1.95394780
C       -2.50525267      -2.50173510      -2.49729331
C       -1.17691894      -2.86293063      -2.22638848
C       -0.36731068      -2.05935013      -1.41818877
C       -3.32451021      -3.36490627      -3.34167611
C       -4.69682789      -3.48120068      -3.23663258
S       -5.28640197      -4.59845615      -4.39423840
C       -3.67658450      -4.86210443      -4.94397586
C       -3.40731737      -5.80618722      -6.07671664
C       -3.21052261      -7.21457595      -5.60335215
S       -1.63953349      -7.79159757      -5.21346281
C       -2.30997753      -9.32138482      -4.82802701
C       -3.67835787      -9.31186297      -5.01595500
N       -4.17977201      -8.09839869      -5.47650027
C       -4.57230369     -10.44538406      -4.76727509
C       -4.10377779     -11.69839318      -4.34185548
C       -4.99202299     -12.75556570      -4.10801808
C       -6.35840824     -12.56865513      -4.29848082
C       -6.84575977     -11.33615090      -4.72112261
C       -5.95528051     -10.28245508      -4.95330409
N       -2.74873276      -4.16520175      -4.31826451
H       -2.59720907       0.42313548      -0.73923921
H       -4.01933232      -0.97977023      -2.16210300
H       -0.76637461      -3.78073186      -2.64385581
H        0.65672967      -2.36178674      -1.21785944
H       -5.37355490      -2.99145413      -2.55226513
H       -2.52358380      -5.46048957      -6.62745902
H       -4.23516203      -5.78287592      -6.79645065
H       -1.66574581     -10.11774305      -4.48737219
H       -3.04532772     -11.88340830      -4.18244009
H       -4.60549607     -13.71624644      -3.77772600
H       -7.91042848     -11.17966475      -4.87227111
H       -6.35326953      -9.32357604      -5.28128189
C       -7.27055264     -13.65625116      -4.05614330
C       -8.03447358     -14.56711283      -3.85318563
Br      -9.26966912     -16.03989912      -3.52502023
C       -0.88169000       0.88169000       0.88169000
C       -2.04270823       0.35601269       1.44414528
C       -2.85230329       1.16339989       2.25048479
C       -2.50584121       2.50035805       2.49808183
C       -1.32698212       3.00782381       1.93143213
C       -0.51827656       2.20432479       1.12224823
C       -3.32935247       3.36689159       3.33484853
C       -4.69856629       3.24568509       3.47040976
S       -5.29766986       4.45291454       4.52851212
C       -3.69936632       5.06260938       4.72068909
C       -3.43702921       6.23143737       5.62175466
C       -3.58245425       7.54013992       4.90585655
S       -2.22701697       8.27271004       4.14486686
C       -3.22252956       9.58002833       3.65683147
C       -4.51870705       9.39196895       4.09549983
N       -4.70707258       8.22235247       4.82524592
C       -5.63583090      10.30546087       3.84367108
C       -5.48124392      11.51483921       3.14794332
C       -6.57629721      12.35792920       2.92138036
C       -7.83710072      11.99858816       3.38985532
C       -8.01420197      10.80564018       4.08319113
C       -6.91788804       9.96596321       4.30718843
N       -2.76732029       4.41505681       4.04982192
H       -2.32493597      -0.67858912       1.26696595
H       -3.74336380       0.72503122       2.69281054
H       -1.03448351       4.03999961       2.11647917
H        0.38739410       2.62039095       0.68991965
H       -5.37070176       2.53740773       3.00916468
H       -2.42935953       6.13679783       6.04537503
H       -4.12322064       6.21352973       6.47773824
H       -2.79920211      10.38970501       3.08195393
H       -4.51393032      11.83000566       2.76724013
H       -6.43193074      13.28865758       2.37888020
H       -8.99415359      10.51563495       4.45257580
H       -7.07406990       9.03476027       4.84929729
C       -8.96233136      12.86587077       3.15474497
C       -9.90471202      13.59221996       2.95784006
Br     -11.42846185      14.76666516       2.63946146
C        0.88169000      -0.88169000       0.88169000
C        0.29751965      -1.84915373       1.69619282
C        1.10413219      -2.65618540       2.50587039
C        2.49852615      -2.49977944       2.50597549
C        3.06836299      -1.52730734       1.67056773
C        2.26438767      -0.71702568       0.86343622
C        3.36598348      -3.32634751       3.33876159
C        2.99407203      -3.86597422       4.55461489
S        4.29106768      -4.76211575       5.22591309
C        5.26168738      -4.35811897       3.86285843
C        6.66526521      -4.87257323       3.75238279
C        7.65449356      -3.96085246       4.41310469
S        8.41809387      -2.70809464       3.51840535
C        9.28602498      -2.24966727       4.92369711
C        8.95307794      -3.06640893       5.98668897
N        8.02534450      -4.05516973       5.67415674
C        9.49332440      -2.94845695       7.34318149
C       10.46049528      -1.99240121       7.69112995
C       10.94687503      -1.90709401       9.00163773
C       10.46996021      -2.77884379       9.97674020
C        9.51258491      -3.73545922       9.65498915
C        9.02894335      -3.81727275       8.34482358
N        4.66924669      -3.60843909       2.95451324
H       -0.78051753      -1.98765306       1.70617727
H        0.62616773      -3.41622276       3.11881507
H        4.14858235      -1.39378572       1.64859421
H        2.72750283       0.03295901       0.22837269
H        2.05619691      -3.77836664       5.08271062
H        6.91498353      -5.00438974       2.69215912
H        6.74145107      -5.87012170       4.20291584
H        9.97209699      -1.41732978       4.88143427
H       10.85727035      -1.29513198       6.95877378
H       11.69471264      -1.15753875       9.24721712
H        9.13338503      -4.42026416      10.40871515
H        8.27798946      -4.56990193       8.11023607
C       10.96998897      -2.68882495      11.32413318
C       11.38876306      -2.61343418      12.45257480
Br      12.06588534      -2.49153367      14.27716947
