174
Properties=species:S:1:pos:R:3 pbc="F F F"
C        1.79159402       1.79159402      -1.79159402
C        1.42824177       3.11532513      -2.02901137
C        2.23419539       3.92348319      -2.83822147
C        3.40691869       3.41239386      -3.41468061
C        3.76126943       2.08005393      -3.15462676
C        2.95572053       1.26929359      -2.34954753
C        4.26797209       4.23041189      -4.26242069
C        3.82093392       5.27301556      -5.05042373
S        5.13157222       5.97577505      -5.90146132
C        6.19925212       4.83655079      -5.17657395
C        7.66683903       4.87368639      -5.47940789
C        8.01517735       4.05645270      -6.68653274
S        8.44923059       2.40178533      -6.52329002
C        8.66501014       2.30315128      -8.22094001
C        8.39952584       3.52171888      -8.81464319
N        8.04197982       4.52409506      -7.91830816
C        8.46918745       3.79299634     -10.25249113
C        8.86466531       2.82256432     -11.18650889
C        8.91151692       3.11947686     -12.55432506
C        8.56334731       4.39147849     -13.00043047
C        8.16973862       5.36982880     -12.09317794
C        8.12387688       5.06922668     -10.72764819
N        5.63100601       3.98400069      -4.34690439
H        0.52563029       3.52985856      -1.58753603
H        1.93911328       4.95817261      -2.99363174
H        4.67092414       1.66474150      -3.58500872
H        3.24744342       0.23898259      -2.16620258
H        2.81701143       5.64879955      -5.18117526
H        8.22163649       4.51700533      -4.60260264
H        7.99613089       5.90790683      -5.64016295
H        8.96375305       1.36766934      -8.66915073
H        9.14396496       1.81929822     -10.87762501
H        9.21962955       2.35100709     -13.25854394
H        7.89548379       6.36556845     -12.43102417
H        7.81124849       5.84546099     -10.03113006
C        8.61059601       4.69471601     -14.40734715
C        8.65016680       4.94867743     -15.58563988
Br       8.71414942       5.35931156     -17.49083956
C       -1.79159402      -1.79159402      -1.79159402
C       -3.10814387      -1.41575140      -2.04868301
C       -3.91746699      -2.22373143      -2.85470162
C       -3.41513255      -3.41168208      -3.40717852
C       -2.08342635      -3.76713507      -3.14538870
C       -1.27379326      -2.96354681      -2.33722158
C       -4.23428966      -4.27471669      -4.25179831
C       -5.60537258      -4.39900196      -4.13999868
S       -6.19518046      -5.51318372      -5.30044441
C       -4.58696627      -5.76515015      -5.86026045
C       -4.31875575      -6.70164903      -6.99952852
C       -4.11182140      -8.11148005      -6.53486134
S       -2.53566076      -8.68207991      -6.15656527
C       -3.19576228     -10.21752707      -5.77581208
C       -4.56517131     -10.21440105      -5.95631556
N       -5.07559728      -9.00120679      -6.40757897
C       -5.45164192     -11.35406716      -5.70896584
C       -4.97408046     -12.60679401      -5.29286405
C       -5.85534203     -13.67000301      -5.05997380
C       -7.22372482     -13.48946899      -5.24206245
C       -7.71998593     -12.25736329      -5.65539613
C       -6.83646267     -11.19762772      -5.88666136
N       -3.65950663      -5.06661398      -5.23579048
H       -3.51331728      -0.49686006      -1.63284753
H       -4.93554801      -1.89976235      -3.05560727
H       -1.67021230      -4.68043949      -3.57002256
H       -0.24706998      -3.26150982      -2.14404878
H       -6.28101206      -3.91661768      -3.44935650
H       -3.43989051      -6.34821235      -7.55314161
H       -5.15059789      -6.67894461      -7.71465817
H       -2.54541762     -11.01220883      -5.44294667
H       -3.91380214     -12.78693240      -5.14015363
H       -5.46186603     -14.63034172      -4.73697284
H       -8.78628435     -12.10583121      -5.79996085
H       -7.24137822     -10.23916518      -6.20729614
C       -8.12867509     -14.58327575      -5.00070834
C       -8.88657093     -15.49933891      -4.79857427
Br     -10.11202441     -16.98053555      -4.47174058
C       -1.79159402       1.79159402       1.79159402
C       -2.97585549       1.27966635       2.31705643
C       -3.78542634       2.08712501       3.12334869
C       -3.41569230       3.41043248       3.40786837
C       -2.21389960       3.90385369       2.87819684
C       -1.40507088       3.10036253       2.06912824
C       -4.23856623       4.27665882       4.24557961
C       -5.61274245       4.18284110       4.34878967
S       -6.20884081       5.37985451       5.42011326
C       -4.60236511       5.94977679       5.66023496
C       -4.33479428       7.09276341       6.59237562
C       -4.43602812       8.41953472       5.90259994
S       -3.04857880       9.13825230       5.18747483
C       -4.00455986      10.47750129       4.70704028
C       -5.31387950      10.30869412       5.11331429
N       -5.54357512       9.12802031       5.81278761
C       -6.40515024      11.25188522       4.85763946
C       -6.20910909      12.47231283       4.19231660
C       -7.28040059      13.34410153       3.96081672
C       -8.55872569      13.00266823       4.39386235
C       -8.77686220      11.79921244       5.05667071
C       -7.70418014      10.93086276       5.28570885
N       -3.66993982       5.29644054       4.99553073
H       -3.27640421       0.25562826       2.11099240
H       -4.69531616       1.65909530       3.53650617
H       -1.90331128       4.92506979       3.09229329
H       -0.48128113       3.50556130       1.66578616
H       -6.28967774       3.49973165       3.85757685
H       -3.33901566       6.96673753       7.03549127
H       -5.03996364       7.07152090       7.43271613
H       -3.55122076      11.28986548       4.15948687
H       -5.22702871      12.77418138       3.83967810
H       -7.10398711      14.28292497       3.44226851
H       -9.77078032      11.52301715       5.39827894
H       -7.89240498       9.99183459       5.80359997
C       -9.65946807      13.89948977       4.15370133
C      -10.58133982      14.65057782       3.95256647
Br     -12.07192847      15.86502366       3.62734842
C        1.79159402      -1.79159402       1.79159402
C        1.21172494      -2.79079154       2.57006180
C        2.01827751      -3.59789433       3.37972821
C        3.40828990      -3.40985619       3.41584706
C        3.97419201      -2.40549241       2.61626571
C        3.17014170      -1.59514063       1.80927932
C        4.27558413      -4.23563891       4.24958161
C        3.88877382      -4.81173980       5.44385959
S        5.19067150      -5.69352985       6.12460724
C        6.18237817      -5.23594229       4.79405641
C        7.59969992      -5.71562620       4.70460718
C        8.55215383      -4.79726606       5.40874290
S        9.30654147      -3.50697753       4.56078694
C       10.13137702      -3.06176045       5.99596396
C        9.79343770      -3.91038518       7.03206504
N        8.89631924      -4.91245027       6.67561353
C       10.29979715      -3.81178093       8.40309683
C       11.23628781      -2.84233087       8.79511984
C       11.69061493      -2.77650903      10.11819488
C       11.21206362      -3.68134176      11.06185088
C       10.28478049      -4.65173819      10.69622668
C        9.83310102      -4.71401388       9.37363686
N        5.59346324      -4.47899266       3.88945519
H        0.13725544      -2.95397139       2.55179804
H        1.54431469      -4.38266805       3.96393489
H        5.05123109      -2.24695894       2.62248432
H        3.63000019      -0.82023718       1.20239121
H        2.93734406      -4.75780397       5.95183821
H        7.87647043      -5.81701476       3.64775927
H        7.68881650      -6.72139996       5.13398422
H       10.79867332      -2.21327448       5.98862532
H       11.63328144      -2.11935936       8.08824739
H       12.41502357      -2.01605635      10.39810067
H        9.90457654      -5.36234964      11.42515023
H        9.10539927      -5.47786558       9.10457469
C       11.67908385      -3.61135887      12.42221646
C       12.07021328      -3.55274820      13.56152263
Br      12.70263650      -3.45797970      15.40368435
C       -0.00445707       0.01189536      -1.78238275
H       -0.66409135       0.67374010      -2.43557963
H        0.65740317      -0.63156657      -2.45157240
C       -0.90989263      -0.90692880      -0.91072765
C        0.90977584       0.90977584      -0.90977584
C       -0.00465871       1.77757030       0.00794375
H       -0.66225468       2.44313916      -0.64384735
H        0.64322798       2.43503045       0.67728295
C       -1.78241447       0.00034974      -0.00472694
H       -2.45427497      -0.65498947       0.64260836
H       -2.43311707       0.67328779      -0.65473579
C       -0.91132561       0.90220522       0.91563759
C       -0.01476271      -0.02253852       1.78660255
H       -0.67934791      -0.69751639       2.42135241
H        0.63392994       0.61504881       2.47327442
C        0.01484550      -1.77751727      -0.01636693
H        0.67870853      -2.42144646      -0.68295456
H       -0.62264859      -2.45592969       0.64226336
C        1.78714474       0.01002794       0.00389507
H        2.44202412       0.67113390       0.66197326
H        2.45385902      -0.65136977      -0.64189061
C        0.91606151      -0.90478549       0.90901405
