141
Properties=species:S:1:pos:R:3 pbc="F F F"
C        0.00000000       0.00000000       0.00000000
O        0.72071088       1.16711076      -8.07282831
C        1.41243480       1.03653207      -7.06784052
C        1.06152344       1.78219193      -5.78587790
N        2.24173013       2.53502607      -5.29733196
S        1.96103783       3.48975351      -3.92431372
O        3.18584515       4.22294607      -3.69590887
O        0.69167918       4.15649842      -4.09161302
C        1.82505002       2.38851118      -2.53694161
C        2.78836284       1.84813781      -1.70207446
C        2.23343024       0.96042505      -0.73339574
C        0.87165181       0.87165181      -0.87165181
S        0.25858307       1.83247409      -2.12327207
N        2.52472467       0.21914400      -6.92765507
C        3.08163044      -0.64105429      -7.89835783
C        2.59995423      -0.74605963      -9.20222511
C        3.20007701      -1.61900709     -10.11330343
C        4.28667501      -2.40398876      -9.72813514
C        4.78954513      -2.32372502      -8.42205266
C        5.95033551      -3.16185654      -7.96263067
C        4.17686831      -1.43179705      -7.51843083
H        0.73978835       1.04294418      -5.04786869
H        0.23873934       2.46714694      -6.01152174
H        2.62204455       3.15395138      -6.02087229
H        3.84261424       2.08452285      -1.79501732
H        2.80866748       0.42535568       0.01277160
H        2.99172972       0.25992406      -6.02792626
H        1.75877953      -0.15796431      -9.55425896
H        2.80486179      -1.67452632     -11.12492689
H        6.20622779      -2.95730579      -6.91775729
H        6.83998711      -2.94757099      -8.56362083
H        5.70482611      -4.22651498      -8.03562329
H        4.56236754      -1.36824994      -6.50280496
C        4.85483680      -3.28327485     -10.71689607
C        5.33067229      -4.01967694     -11.54498334
Br       6.10005804      -5.21037685     -12.88393043
O       -7.72176426      -2.68791036       0.44902467
C       -6.59590833      -3.08092910       0.16003004
C       -5.68205272      -2.23195970      -0.71558085
N       -5.18167491      -3.03604919      -1.85636406
S       -4.22618458      -2.18205741      -2.96686306
O       -3.95395124      -3.10511373      -4.04563512
O       -4.84381978      -0.89795984      -3.19801101
C       -2.64896735      -1.90321880      -2.19831666
C       -1.50855766      -2.68644717      -2.14357028
C       -0.47328262      -2.08722780      -1.36674061
C       -0.87165181      -0.87165181      -0.87165181
S       -2.44421025      -0.44217890      -1.32794008
N       -5.99525694      -4.25826655       0.58199975
C       -6.54140041      -5.23724723       1.43971365
C       -7.83530165      -5.17541446       1.95459641
C       -8.31277556      -6.18082918       2.79923139
C       -7.49765648      -7.25838226       3.14521735
C       -6.19016371      -7.34475532       2.64704627
C       -5.27466701      -8.48232667       3.00588403
C       -5.72770080      -6.32559523       1.78979394
H       -4.85382852      -1.88352076      -0.09325194
H       -6.26295459      -1.37794690      -1.07650654
H       -5.94994954      -3.46118671      -2.38573196
H       -1.43422929      -3.64744647      -2.64047865
H        0.49890587      -2.53127573      -1.18888171
H       -5.06444996      -4.43367640       0.21854631
H       -8.51118844      -4.36058796       1.71670222
H       -9.32859202      -6.10714598       3.18047564
H       -4.29966242      -8.38420777       2.51719090
H       -5.70480037      -9.43675907       2.68552249
H       -5.09710693      -8.50305551       4.08622802
H       -4.71249203      -6.38733547       1.40290494
C       -8.05290057      -8.25707894       4.02152150
C       -8.51791750      -9.09348740       4.75542621
Br      -9.26981055     -10.44588915       5.94208807
O       -6.69974410       4.53293498      -1.27202913
C       -5.62476469       4.57392588      -0.68188318
C       -5.13688748       3.37305404       0.11965174
N       -4.78463041       3.79180500       1.49765275
S       -4.31576447       2.53019517       2.52914542
O       -4.14180213       3.12993346       3.83296450
O       -5.20917936       1.41702197       2.31358929
C       -2.68380071       2.02851730       2.03818480
C       -1.43472013       2.50350015       2.40035483
C       -0.37783697       1.83200182       1.71741224
C       -0.87165181       0.87165181       0.87165181
S       -2.56065229       0.76032941       0.89334753
N       -4.72150681       5.62704774      -0.67703080
C       -4.83921850       6.85777585      -1.35806036
C       -5.95390080       7.21651728      -2.11429837
C       -6.00445154       8.45297034      -2.76304854
C       -4.93557555       9.34395285      -2.66870701
C       -3.79910776       9.00844221      -1.91967720
C       -2.62005804       9.93432519      -1.80327358
C       -3.76858387       7.76015609      -1.26523787
H       -4.26565472       2.96037555      -0.39542905
H       -5.94343331       2.63405128       0.13992344
H       -5.56119910       4.28074254       1.95492658
H       -1.29869715       3.30114629       3.12231097
H        0.67557536       2.05007829       1.84674864
H       -3.89241590       5.49467400      -0.10750986
H       -6.81286423       6.56198244      -2.21977249
H       -6.89009734       8.70625860      -3.34109358
H       -1.83298101       9.50694296      -1.17324468
H       -2.92113640      10.88378079      -1.34888024
H       -2.18258218      10.12097176      -2.78961953
H       -2.88722564       7.49457461      -0.68487768
C       -5.05353231      10.59925816      -3.36433246
C       -5.15232110      11.65057637      -3.94691877
Br      -5.31205421      13.35046898      -4.88891157
O        3.84230535       1.03788444       7.15622904
C        4.02273679       0.55060956       6.04468016
C        2.94129393      -0.29956341       5.38873593
N        3.50776138      -1.60228215       4.96404463
S        2.38485110      -2.68736862       4.30288534
O        3.10991490      -3.91751956       4.07726563
O        1.18798357      -2.64309474       5.10871232
C        1.97606845      -2.09617791       2.67825645
C        2.58130291      -2.30640137       1.45087083
C        1.94014050      -1.58939372       0.39771680
C        0.87165181      -0.87165181       0.87165181
S        0.62566465      -1.05190459       2.53676000
N        5.14211967       0.71149673       5.24090080
C        6.29399168       1.47726761       5.52220991
C        6.49244344       2.15842771       6.72210398
C        7.65832239       2.89857028       6.93462123
C        8.63814519       2.97210354       5.94477974
C        8.46388904       2.30191943       4.72590315
C        9.48927611       2.36615210       3.62798564
C        7.28513793       1.55339188       4.53175605
H        2.55684389       0.25540541       4.52916273
H        2.14384286      -0.45127007       6.12229510
H        3.97049528      -2.08527228       5.74110066
H        3.44819368      -2.94617659       1.32778413
H        2.25378595      -1.60671046      -0.63924485
H        5.12861535       0.20880670       4.35977140
H        5.76344088       2.13378048       7.52541377
H        7.78650742       3.41454735       7.88330229
H        9.18484904       1.77567258       2.75750283
H       10.44760895       1.96561561       3.97404362
H        9.62275686       3.39928347       3.29046102
H        7.14460528       1.03373654       3.58605382
C        9.81310271       3.75434191       6.22969722
C       10.79712963       4.40946654       6.46831561
Br      12.38821793       5.46874767       6.85414136
