162
Properties=species:S:1:pos:R:3 pbc="F F F"
O        1.63061490       2.07701479      -8.98273233
C        2.32233882       1.94643610      -7.97774454
C        1.97142747       2.69209595      -6.69578192
N        3.15163415       3.44493009      -6.20723599
S        2.87094185       4.39965753      -4.83421775
O        4.09574918       5.13285010      -4.60581289
O        1.60158321       5.06640244      -5.00151704
C        2.73495404       3.29841521      -3.44684563
C        3.69826686       2.75804183      -2.61197849
C        3.14333427       1.87032907      -1.64329976
C        1.78155583       1.78155583      -1.78155583
S        1.16848709       2.74237811      -3.03317610
N        3.43462870       1.12904803      -7.83755909
C        3.99153446       0.26884973      -8.80826186
C        3.50985826       0.16384439     -10.11212913
C        4.10998104      -0.70910307     -11.02320745
C        5.19657903      -1.49408474     -10.63803917
C        5.69944915      -1.41382099      -9.33195668
C        6.86023954      -2.25195251      -8.87253469
C        5.08677233      -0.52189302      -8.42833486
H        1.64969237       1.95284820      -5.95777271
H        1.14864337       3.37705096      -6.92142577
H        3.53194858       4.06385540      -6.93077631
H        4.75251827       2.99442687      -2.70492134
H        3.71857151       1.33525970      -0.89713243
H        3.90163375       1.16982808      -6.93783029
H        2.66868355       0.75193971     -10.46416299
H        3.71476581      -0.76462230     -12.03483092
H        7.11613182      -2.04740177      -7.82766131
H        7.74989114      -2.03766696      -9.47352485
H        6.61473013      -3.31661096      -8.94552732
H        5.47227157      -0.45834592      -7.41270898
C        5.76474082      -2.37337082     -11.62680009
C        6.24057632      -3.10977292     -12.45488737
Br       7.00996207      -4.30047282     -13.79383445
O       -8.51561496      -3.88075314      -0.29399392
C       -7.38791771      -4.22400774      -0.63459401
C       -6.53464658      -3.31430788      -1.51035088
N       -6.04763485      -4.06121781      -2.69494758
S       -5.16118989      -3.13707937      -3.80654787
O       -4.89584300      -4.01292081      -4.92564836
O       -5.82972352      -1.86834584      -3.97143333
C       -3.56833704      -2.82928533      -3.08259251
C       -2.40081716      -3.57342530      -3.09404472
C       -1.35982980      -2.96492687      -2.33220644
C       -1.78155583      -1.78155583      -1.78155583
S       -3.38280772      -1.39230207      -2.16893151
N       -6.73327124      -5.39317195      -0.27479263
C       -7.21548928      -6.41922042       0.56606365
C       -8.49188103      -6.42030977       1.12635902
C       -8.90507417      -7.46990823       1.95089698
C       -8.04226341      -8.52930680       2.23103675
C       -6.75087820      -8.55281810       1.68611147
C       -5.78532413      -9.66907733       1.97357973
C       -6.35358676      -7.48958964       0.84996224
H       -5.69738414      -2.95831897      -0.90461018
H       -7.15646636      -2.46945952      -1.82119422
H       -6.81915788      -4.49486152      -3.21256089
H       -2.31143875      -4.51383010      -3.62659763
H       -0.36750779      -3.38036514      -2.20309071
H       -5.81037888      -5.52339632      -0.67551692
H       -9.20292784      -5.62210370       0.94024530
H       -9.90880262      -7.44487498       2.36870316
H       -4.83195198      -9.52030298       1.45586360
H       -6.19383523     -10.62660616       1.63469236
H       -5.56936879      -9.72016955       3.04589185
H       -5.35106812      -7.50252415       0.42695764
C       -8.53225073      -9.57599721       3.09007785
C       -8.94261512     -10.45260042       3.80952477
Br      -9.60613962     -11.86999368       4.97280960
O       -8.83264599       2.97903751       0.87867853
C       -7.72334099       3.47540785       1.04777062
C       -6.68314567       2.76804017       1.90811950
N       -6.16567796       3.69469487       2.94342740
S       -5.06643427       3.00403035       4.03435250
O       -4.78976884       4.02727023       5.01737310
O       -5.56157830       1.70042021       4.40750419
C       -3.53281451       2.78174010       3.16566028
C       -2.46525935       3.63982754       2.96320029
C       -1.44559214       3.05855686       2.15281410
C       -1.78155583       1.78155583       1.78155583
S       -3.27728872       1.27525514       2.39149745
N       -7.25063184       4.65649557       0.49410840
C       -7.93427194       5.52155117      -0.38717705
C       -9.25351215       5.32415408      -0.79183445
C       -9.87002173       6.22157218      -1.66750849
C       -9.17060220       7.32524836      -2.15531711
C       -7.84102523       7.54671456      -1.77015495
C       -7.04752312       8.71641297      -2.28311437
C       -7.23742091       6.63552981      -0.87973654
H       -5.87786027       2.43312398       1.24932904
H       -7.16636022       1.90498872       2.37577116
H       -6.92428155       4.10288905       3.49940969
H       -2.43110349       4.64007903       3.38068395
H       -0.52740612       3.55732410       1.86623342
H       -6.31249498       4.92810901       0.76868813
H       -9.84330397       4.48331800      -0.44183572
H      -10.90204812       6.04343084      -1.96050452
H       -6.03454270       8.72928628      -1.86743761
H       -7.52732203       9.65906098      -2.00063399
H       -6.95203151       8.66434906      -3.37273408
H       -6.20463628       6.80220145      -0.58020309
C       -9.86621987       8.20776062      -3.05581040
C      -10.44879967       8.94686463      -3.80997354
Br     -11.39078194      10.14193331      -5.02939154
O        4.37945959      -0.03555076       8.27535168
C        4.63129540      -0.46234946       7.15287459
C        3.62049153      -1.32826307       6.41055073
N        4.26493768      -2.58355769       5.95530486
S        3.22386385      -3.68549617       5.19545711
O        4.01440693      -4.87057279       4.94943245
O        1.99173375      -3.73162072       5.94614822
C        2.86045283      -3.03836114       3.58140092
C        3.52851322      -3.16450758       2.37526638
C        2.90207491      -2.42857194       1.32631625
C        1.78155583      -1.78155583       1.78155583
S        1.47071549      -2.04945651       3.42386930
N        5.77650617      -0.21501020       6.40971944
C        6.87808776       0.58714582       6.77770412
C        6.99146500       1.22011088       8.01447766
C        8.11125703       2.00049777       8.31332616
C        9.12947705       2.16310339       7.37415980
C        9.04057756       1.54304210       6.12004937
C       10.10948315       1.70338936       5.07472793
C        7.90751504       0.75286672       5.83856585
H        3.24917482      -0.75163648       5.55950199
H        2.79923425      -1.54893732       7.09894853
H        4.71469601      -3.08106588       6.73081840
H        4.42870637      -3.75889279       2.26426732
H        3.26178044      -2.38393618       0.30524701
H        5.82531894      -0.67645043       5.50752274
H        6.22954249       1.12603405       8.78127781
H        8.17328362       2.47714518       9.28883600
H        9.87156614       1.14096880       4.16579402
H       11.06908146       1.33006791       5.44673548
H       10.20977501       2.75594112       4.78981260
H        7.83320473       0.27186404       4.86529394
C       10.25317419       2.98254782       7.74754372
C       11.19427055       3.66883254       8.06025275
Br      12.71594376       4.77849687       8.56587682
C       -0.00445707       0.01189536      -1.78238275
H       -0.66409135       0.67374010      -2.43557963
H        0.65740317      -0.63156657      -2.45157240
C       -0.90989263      -0.90692880      -0.91072765
C        0.90977584       0.90977584      -0.90977584
C       -0.00465871       1.77757030       0.00794375
H       -0.66225468       2.44313916      -0.64384735
H        0.64322798       2.43503045       0.67728295
C       -1.78241447       0.00034974      -0.00472694
H       -2.45427497      -0.65498947       0.64260836
H       -2.43311707       0.67328779      -0.65473579
C       -0.91132561       0.90220522       0.91563759
C       -0.01476271      -0.02253852       1.78660255
H       -0.67934791      -0.69751639       2.42135241
H        0.63392994       0.61504881       2.47327442
C        0.01484550      -1.77751727      -0.01636693
H        0.67870853      -2.42144646      -0.68295456
H       -0.62264859      -2.45592969       0.64226336
C        1.78714474       0.01002794       0.00389507
H        2.44202412       0.67113390       0.66197326
H        2.45385902      -0.65136977      -0.64189061
C        0.91606151      -0.90478549       0.90901405
