141
Properties=species:S:1:pos:R:3 pbc="F F F"
C        0.00000000       0.00000000       0.00000000
O        4.50851451       0.13007318      -6.83014125
C        4.41163603      -0.61628829      -5.85994977
C        4.33225610      -0.06810526      -4.43670606
N        4.15729862       1.39163328      -4.45246063
S        4.22864295       2.17775023      -2.97299222
O        5.23622333       1.53212976      -2.16416061
O        4.26391840       3.59450458      -3.25647739
C        2.65561293       1.91165950      -2.18489281
C        1.46411903       2.61295001      -2.26270155
C        0.42321472       2.00621435      -1.49869216
C        0.87187542       0.87187542      -0.87187542
S        2.50275318       0.53389305      -1.17738985
N        4.40462124      -2.00427493      -5.87761138
C        4.40770501      -2.85809661      -7.00413630
C        4.22695504      -2.37842856      -8.30757863
C        4.21119961      -3.25084987      -9.40002969
C        4.37657906      -4.61440797      -9.19674458
C        4.55698720      -5.11435526      -7.90979412
C        4.57560239      -4.24716453      -6.80186147
C        4.78307171      -4.84613370      -5.43551389
H        5.26793988      -0.33797021      -3.93718753
H        3.48271204      -0.53677197      -3.93203456
H        4.72120070       1.86189855      -5.16680209
H        1.35486999       3.51550972      -2.85391374
H       -0.58913461       2.38611197      -1.42711272
H        4.45240004      -2.46234336      -4.97704421
H        4.07752497      -1.32253692      -8.51234559
H        4.06484055      -2.85022335     -10.39976863
H        4.68678164      -6.18514815      -7.76537329
H        3.89316189      -4.69448763      -4.81635761
H        5.65234150      -4.39184914      -4.94862754
H        4.97011055      -5.92393846      -5.48908528
C        4.35931376      -5.51552195     -10.31981871
C        4.34485407      -6.27020492     -11.26039329
Br       4.32147398      -7.49046344     -12.78122284
O       -7.56303895      -0.91176713      -2.99392285
C       -7.08159722      -0.68669630      -1.88700399
C       -5.86886581      -1.45940752      -1.37258356
N       -5.28095566      -2.27528941      -2.44514747
S       -4.04755722      -3.32385965      -2.00796854
O       -4.35591974      -3.86981595      -0.70677799
O       -3.79372197      -4.16751884      -3.15365956
C       -2.57944269      -2.33247846      -1.84024409
C       -1.63105562      -1.93924917      -2.76946580
C       -0.63610658      -1.08619794      -2.20581671
C       -0.87187542      -0.87187542      -0.87187542
S       -2.24640530      -1.67408342      -0.29354735
N       -7.55124459       0.21921141      -0.94592450
C       -8.61239132       1.14276416      -1.08411754
C       -9.23279275       1.39161379      -2.31492615
C      -10.26454049       2.32878004      -2.42461898
C      -10.68525381       3.02679398      -1.30045584
C      -10.08272717       2.79674858      -0.06644747
C       -9.04391509       1.85583524       0.05778052
C       -8.43718578       1.64461086       1.42012302
H       -6.21855759      -2.09529320      -0.55330641
H       -5.12977852      -0.74071763      -1.00747849
H       -5.97951512      -2.72872192      -3.04166430
H       -1.66685575      -2.24941755      -3.80802017
H        0.19252088      -0.65864336      -2.75796760
H       -7.11503209       0.18200850      -0.03407730
H       -8.92579922       0.88155560      -3.22309002
H      -10.72451392       2.50385655      -3.39372846
H      -10.42352914       3.35001260       0.80650976
H       -7.38682422       1.95287966       1.41891269
H       -8.51168338       0.59156546       1.71099801
H       -8.95344267       2.22892456       2.18926075
C      -11.74664455       3.99369822      -1.41066418
C      -12.63555930       4.80348052      -1.50296367
Br     -14.07285927       6.11283001      -1.65220412
O       -3.33299995       0.69217790       7.44355107
C       -3.25162804      -0.19704588       6.60071534
C       -3.49839902       0.08271130       5.11974658
N       -3.59742344       1.52906566       4.87490343
S       -4.04339199       2.00570206       3.33029136
O       -5.02705194       1.07196970       2.83349205
O       -4.29663682       3.42731702       3.39094654
C       -2.59078990       1.84641859       2.31495675
C       -1.55304229       2.72701542       2.05971289
C       -0.54962788       2.15875995       1.21973340
C       -0.87187542       0.87187542       0.87187542
S       -2.34361401       0.34644277       1.52397929
N       -2.98418623      -1.53920709       6.83297855
C       -2.65287923      -2.15870761       8.05957308
C       -2.36339839      -1.42300482       9.21571155
C       -2.01567227      -2.06394266      10.40864983
C       -1.95446793      -3.45033778      10.45478553
C       -2.23727773      -4.20259677       9.31774510
C       -2.58922046      -3.57005565       8.11113452
C       -2.89226601      -4.43735078       6.91753667
H       -4.43389138      -0.41780673       4.85107255
H       -2.66584361      -0.33325377       4.54538479
H       -4.12046976       2.03007830       5.59935327
H       -1.52255862       3.72950194       2.47223290
H        0.35074411       2.67187158       0.90296261
H       -3.08585864      -2.15836812       6.03961038
H       -2.38268151      -0.33729988       9.22195201
H       -1.79222696      -1.46671052      11.28886939
H       -2.18676683      -5.28848405       9.36872400
H       -2.15365389      -4.26650426       6.12788223
H       -3.89590211      -4.22264181       6.53585960
H       -2.86511379      -5.50218062       7.17232420
C       -1.59517092      -4.11318635      11.68162595
C       -1.29425967      -4.66832203      12.70910481
Br      -0.80771163      -5.56592947      14.37045122
O        7.32179133      -0.52632991       3.62060769
C        6.92042146      -0.23842334       2.49645271
C        5.83846975      -1.06167853       1.80070861
N        5.24001431      -2.02638034       2.73499788
S        4.15749121      -3.13242452       2.08946968
O        4.63099034      -3.52032809       0.78119526
O        3.88646279      -4.10225585       3.12618173
C        2.62077061      -2.26296527       1.86842937
C        1.56041557      -2.04692642       2.73242861
C        0.54113987      -1.23445300       2.15252836
C        0.87187542      -0.87187542       0.87187542
S        2.36335348      -1.48974780       0.36093479
N        7.38130058       0.79234192       1.68899902
C        8.33157348       1.78821799       2.01038920
C        8.81383173       1.97040219       3.31267558
C        9.73615626       2.97994091       3.60416408
C       10.18483785       3.81803140       2.59210922
C        9.71876007       3.65637742       1.29004340
C        8.79107868       2.64390902       0.98312968
C        8.33034101       2.51298100      -0.44490812
H        6.31910914      -1.58179447       0.96625359
H        5.06834030      -0.37905986       1.43057448
H        5.92382487      -2.47203853       3.35403794
H        1.53427435      -2.45191591       3.73810321
H       -0.37052439      -0.93726487       2.65734960
H        7.03296675       0.80532515       0.73945929
H        8.47874187       1.34962061       4.13821239
H       10.08962714       3.10018903       4.62494773
H       10.08007050       4.31956453       0.50650080
H        7.25906099       2.72573449      -0.51829463
H        8.53194085       1.50379510      -0.81902586
H        8.85341617       3.21237836      -1.10578045
C       11.13362172       4.85961864       2.88960744
C       11.92822820       5.73194796       3.13876220
Br      13.21303969       7.14243068       3.54162438
