137
Properties=species:S:1:pos:R:3 pbc="F F F"
C        0.00000000       0.00000000       0.00000000
O        4.75228883       5.87393250       1.28281487
C        5.60773907       5.94746703       0.40783147
C        5.55445914       5.03795255      -0.80543255
C        4.29337388       4.18969526      -0.74242535
S        4.19245031       3.06666592      -2.10722639
O        4.02914005       3.83591251      -3.32533294
O        5.21625830       2.05121189      -1.97712342
C        2.63542858       2.23268426      -1.88662487
C        1.49900947       2.16875696      -2.67452980
C        0.46943794       1.37724977      -2.08187870
C        0.87189595       0.87189595      -0.87189595
S        2.44856530       1.32005393      -0.44767504
N        6.67804137       6.82254217       0.37875416
C        7.00644698       7.76585966       1.38072938
C        6.42790224       7.77024335       2.65023524
C        6.76712479       8.75129286       3.58437720
C        7.69252064       9.74214295       3.25951400
Br       8.05766311      11.06264583       4.57426004
C        8.31047097       9.74799369       2.00077126
C        9.29546700      10.81103225       1.60092790
C        7.96165562       8.74532449       1.07300397
H        6.44874974       4.40231644      -0.80586325
H        5.56634008       5.64643792      -1.71595801
H        3.39965313       4.82178037      -0.77321082
H        4.27738960       3.59905532       0.17849929
H        1.41860177       2.67074733      -3.63237743
H       -0.50176251       1.19610548      -2.52696018
H        7.22497242       6.86399386      -0.47286500
H        5.70930247       7.01637658       2.95598924
H        6.29160325       8.73168068       4.56211006
H        9.75205957      10.59054537       0.63038542
H       10.10975860      10.88052013       2.32907029
H        8.79157330      11.77968791       1.51876736
H        8.42842067       8.75470515       0.09031849
O       -4.30283995       1.18881765      -6.22938417
C       -4.42224721       0.15989908      -6.88502650
C       -3.87498331      -1.15667617      -6.36618476
C       -3.30531203      -0.94906745      -4.97111501
S       -2.60313793      -2.43961333      -4.32359136
O       -3.66967506      -3.40051103      -4.12019941
O       -1.40540237      -2.77412138      -5.06506985
C       -2.06615150      -2.00568282      -2.68290340
C       -2.42822589      -2.48019456      -1.43387577
C       -1.73372841      -1.81746646      -0.37737153
C       -0.87189595      -0.87189595      -0.87189595
S       -0.87780166      -0.77618271      -2.56230989
N       -5.04663762       0.03756428      -8.11275604
C       -5.62435497       1.09168027      -8.85890256
C       -5.42504408       2.44049865      -8.56336492
C       -6.05337037       3.43510343      -9.31577351
C       -6.89030533       3.09173962     -10.37658388
Br      -7.73978451       4.50777928     -11.31404367
C       -7.08880787       1.74527406     -10.71415960
C       -8.00112558       1.33023085     -11.83467661
C       -6.44029860       0.75482913      -9.94850668
H       -3.09553790      -1.50715007      -7.05424146
H       -4.67738973      -1.90187205      -6.34947423
H       -4.08910193      -0.62902030      -4.27652209
H       -2.51802311      -0.18945256      -4.99046995
H       -3.15986630      -3.26821139      -1.29364884
H       -1.86607942      -2.03175248       0.67652875
H       -5.19093053      -0.89826215      -8.47263860
H       -4.77647877       2.76089958      -7.75411061
H       -5.88401831       4.47686822      -9.05402377
H       -7.94491100       0.25244047     -12.01974900
H       -7.72313471       1.82993455     -12.76800828
H       -9.03946584       1.57061131     -11.58363933
H       -6.60293174      -0.29146214     -10.19841345
O       -5.23221294      -1.32862677       5.43982029
C       -5.31558635      -0.37994358       6.21173186
C       -4.54693667       0.90160717       5.94930040
C       -3.81973457       0.78763732       4.61812260
S       -2.86003420       2.23441424       4.27189419
O       -3.76430748       3.35061294       4.07546508
O       -1.74436000       2.30853885       5.19169475
C       -2.15846763       1.93215392       2.66411617
C       -2.28489309       2.59951206       1.45789107
C       -1.53666008       1.98000535       0.41190097
C       -0.87189595       0.87189595       0.87189595
S       -1.12226039       0.57427953       2.51975435
N       -6.08382378      -0.32203220       7.36003780
C       -6.88201368      -1.36885141       7.87841499
C       -6.80839380      -2.68655565       7.42607220
C       -7.65000421      -3.66865383       7.95269005
C       -8.57745930      -3.34398719       8.94167748
Br      -9.71292353      -4.73226549       9.56539086
C       -8.65636303      -2.03378892       9.43511930
C       -9.65748790      -1.63548517      10.48356861
C       -7.79358909      -1.05696091       8.89734798
H       -3.83317026       1.05553745       6.76822172
H       -5.24336030       1.74678854       5.93858716
H       -4.53319292       0.66500703       3.79644438
H       -3.14027969      -0.06995470       4.62762064
H       -2.88954962       3.49196582       1.34021109
H       -1.49560628       2.33629824      -0.61060138
H       -6.16214975       0.57431838       7.82536315
H       -6.09801189      -2.99309410       6.66477201
H       -7.57337537      -4.68446360       7.57226210
H       -9.49744985      -0.60608125      10.82085093
H       -9.57325392      -2.27785740      11.36581193
H      -10.67268727      -1.69833201      10.07813859
H       -7.86143342      -0.03619584       9.26756976
O        6.10047267      -4.47268326      -1.22974947
C        6.77701139      -4.58387993      -0.21351670
C        6.30155973      -3.99486111       1.10142340
C        4.91535938      -3.39772819       0.91240692
S        4.31887090      -2.64692537       2.40054636
O        4.11369221      -3.68629246       3.39040083
O        5.09500403      -1.45947985       2.69010973
C        2.68116816      -2.08189057       1.99167898
C        1.43561329      -2.40388674       2.50279619
C        0.38004086      -1.70023583       1.84828971
C        0.87189595      -0.87189595       0.87189595
S        2.55905015      -0.91934317       0.73790095
N        7.99272911      -5.23374659      -0.10464632
C        8.70078412      -5.85252321      -1.16173008
C        8.37852774      -5.67713163      -2.50774901
C        9.09307565      -6.34528184      -3.50431705
C       10.14227302      -7.19866300      -3.16578642
Br      11.02692667      -8.10174923      -4.58262700
C       10.50650879      -7.37427920      -1.82309458
C       11.61533486      -8.30276232      -1.41252583
C        9.77908601      -6.68574294      -0.83085280
H        7.01515187      -3.22387649       1.41790107
H        6.28395122      -4.77949389       1.86529089
H        4.19584420      -4.17221032       0.62658980
H        4.93493106      -2.62859462       0.13441995
H        1.29716157      -3.11394007       3.31062489
H       -0.67132230      -1.80309672       2.08952872
H        8.37093061      -5.36504663       0.82585404
H        7.57700094      -5.01735590      -2.82466704
H        8.81105814      -6.19363219      -4.54351646
H       11.82668804      -8.22635941      -0.34082793
H       12.54286094      -8.05802646      -1.93967897
H       11.33520239      -9.34017635      -1.62288488
H       10.04952517      -6.83029842       0.21298374
