146
Properties=species:S:1:pos:R:3 pbc="F F F"
O        3.79786908       0.54428104      -8.13933981
C        4.94824072       0.96115992      -8.05823263
C        5.39023721       1.82444707      -6.89606234
C        4.32256007       1.82409655      -5.81310349
S        4.80351192       2.84172980      -4.44435412
O        5.93738645       2.24331242      -3.77102229
O        4.81474412       4.22492765      -4.87783363
C        3.43801827       2.73362555      -3.31032287
C        2.56043167       3.68714728      -2.82429158
C        1.59161245       3.13139882      -1.93569715
C        1.78170700       1.78170700      -1.78170700
S        3.09396131       1.18249826      -2.66777007
N        5.96398062       0.73210047      -8.96379202
C        5.89161048      -0.02942594     -10.15236858
C        4.71789644      -0.58907325     -10.65989407
C        4.74707958      -1.33992400     -11.84187551
C        5.95082456      -1.53383387     -12.51857005
Br       5.97952296      -2.55902830     -14.10552455
C        7.12873629      -0.97837899     -12.03216051
C        7.08549560      -0.23042823     -10.85946822
F        8.22510913       0.30230438     -10.38915267
H        5.56486662       2.84070653      -7.26729523
H        6.33601772       1.43987937      -6.49727039
H        4.16413763       0.80629058      -5.44383201
H        3.37286252       2.21607535      -6.19247001
H        2.61665912       4.73395790      -3.10205785
H        0.80854615       3.69795188      -1.44598698
H        6.88801530       1.09603838      -8.74672572
H        3.75938741      -0.45832728     -10.16711046
H        3.82153271      -1.76807780     -12.22070574
H        8.07547071      -1.11760942     -12.54305633
O       -5.70892015      -6.95302597       0.18045620
C       -5.49564196      -7.71842504      -0.75356627
C       -4.84417792      -7.23503690      -2.03153180
C       -4.29348914      -5.83114970      -1.83512126
S       -3.53886528      -5.22940263      -3.32132792
O       -2.34625156      -6.00027354      -3.60519605
O       -4.57341660      -5.02764134      -4.31644746
C       -2.98496269      -3.59156397      -2.90544003
C       -3.33351184      -2.34439038      -3.39396832
C       -2.63471074      -1.28817812      -2.73581956
C       -1.78170700      -1.78170700      -1.78170700
S       -1.79984863      -3.47111007      -1.67327094
N       -5.80450413      -9.06278946      -0.79257952
C       -6.41407276      -9.82804223       0.22756186
C       -6.90993331      -9.29915406       1.42037010
C       -7.48817423     -10.14029958       2.37944272
C       -7.57076866     -11.51296526       2.14817318
Br      -8.34188116     -12.63905500       3.45491694
C       -7.08868021     -12.05702593       0.96318832
C       -6.52087108     -11.20996743       0.01630291
F       -6.05237106     -11.73791266      -1.12628245
H       -5.59587923      -7.24804369      -2.82894546
H       -4.03844682      -7.92352225      -2.31119841
H       -3.53762310      -5.83275037      -1.04388674
H       -5.08833073      -5.12756719      -1.56550996
H       -4.06093712      -2.20550045      -4.18623730
H       -2.75923314      -0.23506855      -2.95818332
H       -5.52427131      -9.59329041      -1.61321768
H       -6.86981834      -8.23626345       1.63791120
H       -7.86835743      -9.70857813       3.30277492
H       -7.14291758     -13.12195278       0.76395273
O       -6.91672381       5.75261240      -0.18784628
C       -6.70845022       6.71121887       0.54796419
C       -5.77458258       6.60193911       1.73422493
C       -4.99806037       5.29617172       1.66552802
S       -3.90712476       5.13032123       3.05214984
O       -2.85949697       6.12640072       2.96582346
O       -4.70482286       4.96195171       4.25073082
C       -3.11734177       3.55572301       2.80890191
C       -3.12897203       2.38921172       3.55368678
C       -2.35318700       1.35289640       2.95262501
C       -1.78170700       1.78170700       1.78170700
S       -2.14944192       3.39057074       1.40421697
N       -7.26521739       7.96801064       0.42664508
C       -8.17189711       8.40736182      -0.56470581
C       -8.74220527       7.58026100      -1.53374900
C       -9.62355007       8.11011922      -2.48463819
C       -9.93571484       9.46910232      -2.46925641
Br     -11.11643459      10.17446368      -3.76487906
C       -9.38298543      10.30707913      -1.50754675
C       -8.51255427       9.76740068      -0.56541935
F       -7.97672228      10.57923260       0.36061129
H       -6.37343777       6.64852998       2.65090063
H       -5.08543357       7.45428946       1.73344444
H       -4.39704340       5.26559909       0.75161773
H       -5.67206714       4.43298610       1.67635463
H       -3.67530787       2.29191881       4.48544820
H       -2.22995881       0.35824009       3.36428612
H       -6.96453036       8.68817199       1.07807706
H       -8.52982358       6.51649774      -1.57815072
H      -10.05709135       7.44889685      -3.23182756
H       -9.61241329      11.36689928      -1.47839495
O        6.70278961       0.22070022       5.99940054
C        7.51485388      -0.67180382       5.78097558
C        7.11246412      -1.93968377       5.05859874
C        5.72495781      -1.77715786       4.45764443
S        5.21735409      -3.25336212       3.61887963
O        6.04707832      -3.45534121       2.44930162
O        5.01604060      -4.29852462       4.60294018
C        3.58717895      -2.88105493       3.01373281
C        2.34862470      -3.43384862       3.28939721
C        1.29473479      -2.79007821       2.57389541
C        1.78170700      -1.78170700       1.78170700
S        3.46292646      -1.60592916       1.87537402
N        8.84608334      -0.66941910       6.14437066
C        9.54241233       0.35423540       6.82637619
C        8.94413021       1.50273933       7.34732639
C        9.72006163       2.46981688       7.99878635
C       11.09679013       2.29094976       8.12972038
Br      12.13473611       3.60849821       8.99978131
C       11.70933255       1.15028898       7.62347424
C       10.92656313       0.19469934       6.98267181
F       11.52068208      -0.90485818       6.49102592
H        7.12865686      -2.76687983       5.77733168
H        7.84412730      -2.15709780       4.27194238
H        5.72377628      -0.95536446       3.73511948
H        4.97908703      -1.56993349       5.23238736
H        2.21394443      -4.26102621       3.97770424
H        0.24775611      -3.05987870       2.64485020
H        9.42157995      -1.45540685       5.85379261
H        7.87550956       1.67863391       7.27129494
H        9.23480930       3.35810564       8.39745699
H       12.77864391       0.99215603       7.71442974
C       -0.00445707       0.01189536      -1.78238275
H       -0.66409135       0.67374010      -2.43557963
H        0.65740317      -0.63156657      -2.45157240
C       -0.90989263      -0.90692880      -0.91072765
C        0.90977584       0.90977584      -0.90977584
C       -0.00465871       1.77757030       0.00794375
H       -0.66225468       2.44313916      -0.64384735
H        0.64322798       2.43503045       0.67728295
C       -1.78241447       0.00034974      -0.00472694
H       -2.45427497      -0.65498947       0.64260836
H       -2.43311707       0.67328779      -0.65473579
C       -0.91132561       0.90220522       0.91563759
C       -0.01476271      -0.02253852       1.78660255
H       -0.67934791      -0.69751639       2.42135241
H        0.63392994       0.61504881       2.47327442
C        0.01484550      -1.77751727      -0.01636693
H        0.67870853      -2.42144646      -0.68295456
H       -0.62264859      -2.45592969       0.64226336
C        1.78714474       0.01002794       0.00389507
H        2.44202412       0.67113390       0.66197326
H        2.45385902      -0.65136977      -0.64189061
C        0.91606151      -0.90478549       0.90901405
