154
Properties=species:S:1:pos:R:3 pbc="F F F"
O        3.79786908       0.54428104      -8.13933981
C        4.94824072       0.96115992      -8.05823263
C        5.39023721       1.82444707      -6.89606234
C        4.32256007       1.82409655      -5.81310349
S        4.80351192       2.84172980      -4.44435412
O        5.93738645       2.24331242      -3.77102229
O        4.81474412       4.22492765      -4.87783363
C        3.43801827       2.73362555      -3.31032287
C        2.56043167       3.68714728      -2.82429158
C        1.59161245       3.13139882      -1.93569715
C        1.78170700       1.78170700      -1.78170700
S        3.09396131       1.18249826      -2.66777007
N        5.96398062       0.73210047      -8.96379202
C        5.89161048      -0.02942594     -10.15236858
C        4.71789644      -0.58907325     -10.65989407
C        4.74707958      -1.33992400     -11.84187551
C        5.95082456      -1.53383387     -12.51857005
C        7.12873629      -0.97837899     -12.03216051
C        7.08549560      -0.23042823     -10.85946822
F        8.22510913       0.30230438     -10.38915267
H        5.56486662       2.84070653      -7.26729523
H        6.33601772       1.43987937      -6.49727039
H        4.16413763       0.80629058      -5.44383201
H        3.37286252       2.21607535      -6.19247001
H        2.61665912       4.73395790      -3.10205785
H        0.80854615       3.69795188      -1.44598698
H        6.88801530       1.09603838      -8.74672572
H        3.75938741      -0.45832728     -10.16711046
H        3.82153271      -1.76807780     -12.22070574
H        8.07547071      -1.11760942     -12.54305633
C        5.97269561      -2.31513434     -13.72798777
C        5.99101260      -2.96947349     -14.74087511
Br       6.02062964      -4.02748456     -16.37862827
O       -5.72496404      -6.93974926       0.18322338
C       -5.51131170      -7.70772856      -0.74859301
C       -4.85588862      -7.22868711      -2.02617089
C       -4.30248085      -5.82560253      -1.83167673
S       -3.54316361      -5.22890389      -3.31752834
O       -2.35165471      -6.00309178      -3.59697465
O       -4.57501781      -5.02706001      -4.31542757
C       -2.98650832      -3.59138171      -2.90407666
C       -3.33114715      -2.34453162      -3.39619176
C       -2.63144931      -1.28841277      -2.73884634
C       -1.78170700      -1.78170700      -1.78170700
S       -1.80389902      -3.47081639      -1.66951423
N       -5.82311382      -9.05147969      -0.78527959
C       -6.43669719      -9.81305948       0.23520355
C       -6.93404519      -9.28037146       1.42569938
C       -7.51633471     -10.11805166       2.38535527
C       -7.60150178     -11.49104581       2.15698684
C       -7.11797759     -12.03885765       0.97431743
C       -6.54613387     -11.19521360       0.02681188
F       -6.07625707     -11.72678401      -1.11352510
H       -5.60582267      -7.24180064      -2.82524506
H       -4.05108420      -7.91961060      -2.30247268
H       -3.54840111      -5.82711966      -1.03873944
H       -5.09633919      -5.11962909      -1.56543960
H       -4.05647461      -2.20579219      -4.19040808
H       -2.75309822      -0.23552962      -2.96385717
H       -5.54223282      -9.58445711      -1.60408947
H       -6.89202450      -8.21708625       1.64094016
H       -7.89761904      -9.68339713       3.30685553
H       -7.17416634     -13.10410611       0.77735482
C       -8.19333616     -12.34566906       3.15345619
C       -8.68899746     -13.06141603       3.98799927
Br      -9.49043985     -14.21871835       5.33738485
O       -4.58842402       7.73896122       0.15410469
C       -4.42460316       8.32343023       1.21959988
C       -4.06063440       7.56944313       2.48066910
C       -3.68496795       6.13601366       2.13877849
S       -3.27009186       5.22095867       3.59854530
O       -2.04378738       5.74294561       4.16498817
O       -4.46922924       5.05282053       4.39545562
C       -2.88828496       3.58873673       3.00494500
C       -3.48000743       2.35857006       3.23329305
C       -2.83717019       1.30488121       2.51665702
C       -1.78170700       1.78170700       1.78170700
S       -1.54838938       3.45052897       1.94531129
N       -4.54683440       9.68150939       1.43152932
C       -4.87241339      10.66854358       0.47359614
C       -5.23799944      10.39648656      -0.84576874
C       -5.53230650      11.44419531      -1.72747071
C       -5.46047563      12.76690853      -1.29182342
C       -5.10499011      13.05709200       0.02043571
C       -4.81973194      12.00697009       0.88783356
F       -4.47292497      12.28945604       2.15418516
H       -4.92183193       7.59296181       3.15807463
H       -3.22311109       8.07381001       2.97624638
H       -2.81867606       6.12524450       1.47033966
H       -4.51555667       5.61374960       1.65210161
H       -4.33765529       2.23045489       3.88456470
H       -3.14027308       0.26507785       2.54713409
H       -4.33180184      10.04132664       2.35765093
H       -5.31072228       9.38143290      -1.22398459
H       -5.81481552      11.21120250      -2.75185738
H       -5.04283823      14.07894089       0.37913850
C       -5.75570864      13.83788138      -2.20804099
C       -6.00296629      14.73482113      -2.97537321
Br      -6.40276100      16.18509686      -4.21608450
O        7.05663504       0.15622037       5.58107526
C        7.80146241      -0.79503162       5.37113924
C        7.28394790      -2.07540595       4.75139277
C        5.87407523      -1.86354479       4.22214008
S        5.23270739      -3.35178812       3.50510032
O        5.97688065      -3.67048530       2.30435520
O        5.03203506      -4.32469476       4.56077557
C        3.59277567      -2.91637027       2.97282075
C        2.34363686      -3.37616749       3.35206619
C        1.28682019      -2.71158057       2.66030765
C        1.78170700      -1.78170700       1.78170700
S        3.47281464      -1.70335573       1.76805927
N        9.15026342      -0.85274599       5.65686370
C        9.94424680       0.16407908       6.23438540
C        9.44550532       1.37477315       6.71798510
C       10.31371573       2.32863127       7.26394664
C       11.68334618       2.07421709       7.32643166
C       12.19764108       0.87131437       6.85619110
C       11.32392233      -0.07006990       6.32054337
F       11.82309996      -1.23005692       5.86340930
H        7.29638201      -2.85952544       5.51696092
H        7.95279102      -2.38158968       3.93878678
H        5.87605995      -1.08593863       3.45226164
H        5.18976641      -1.56733407       5.02430740
H        2.20387693      -4.15284197       4.09595598
H        0.23235676      -2.91274274       2.80738550
H        9.66106594      -1.68760926       5.38210420
H        8.38607280       1.61064454       6.69274233
H        9.90527170       3.26614528       7.63503422
H       13.25968635       0.65395547       6.89518674
C       12.56941764       3.06472004       7.88085143
C       13.31150249       3.89426626       8.34517799
Br      14.51139092       5.23557233       9.09595476
C       -0.00445707       0.01189536      -1.78238275
H       -0.66409135       0.67374010      -2.43557963
H        0.65740317      -0.63156657      -2.45157240
C       -0.90989263      -0.90692880      -0.91072765
C        0.90977584       0.90977584      -0.90977584
C       -0.00465871       1.77757030       0.00794375
H       -0.66225468       2.44313916      -0.64384735
H        0.64322798       2.43503045       0.67728295
C       -1.78241447       0.00034974      -0.00472694
H       -2.45427497      -0.65498947       0.64260836
H       -2.43311707       0.67328779      -0.65473579
C       -0.91132561       0.90220522       0.91563759
C       -0.01476271      -0.02253852       1.78660255
H       -0.67934791      -0.69751639       2.42135241
H        0.63392994       0.61504881       2.47327442
C        0.01484550      -1.77751727      -0.01636693
H        0.67870853      -2.42144646      -0.68295456
H       -0.62264859      -2.45592969       0.64226336
C        1.78714474       0.01002794       0.00389507
H        2.44202412       0.67113390       0.66197326
H        2.45385902      -0.65136977      -0.64189061
C        0.91606151      -0.90478549       0.90901405
