125
Properties=species:S:1:pos:R:3 pbc="F F F"
C        0.00000000       0.00000000       0.00000000
O        5.37522681       5.49250945       1.42544064
C        5.79776625       5.83868505       0.32661745
C        5.65645584       4.93387815      -0.87971752
C        4.40342638       4.08304656      -0.73730233
S        4.20977993       3.01517556      -2.13868133
O        4.01925104       3.83888877      -3.31720956
O        5.20845959       1.96648830      -2.09533233
C        2.64153218       2.21539890      -1.89506270
C        1.48999194       2.18760151      -2.66278389
C        0.45651499       1.40605415      -2.06498966
C        0.87179633       0.87179633      -0.87179633
S        2.46409819       1.28364582      -0.46856184
N        6.43317032       7.03152354       0.02554999
C        6.70249881       8.09005497       0.91939588
C        6.59041499       7.98227615       2.30803812
C        6.84845302       9.08409769       3.13094212
C        7.21689603      10.30078489       2.56519850
Br       7.53682237      11.79604746       3.67500595
C        7.34751972      10.42068503       1.18461487
C        7.10073340       9.31416264       0.36562563
H        6.55053974       4.30224089      -0.93513077
H        5.60970511       5.52572571      -1.80089550
H        3.51344912       4.71938051      -0.67998029
H        4.45297776       3.46013430       0.16036083
H        1.40343362       2.70583368      -3.61150826
H       -0.52547856       1.25060180      -2.49574981
H        6.63736674       7.21515264      -0.94953330
H        6.31563174       7.04799492       2.78799755
H        6.75436355       8.97634289       4.20855163
H        7.63326945      11.36858622       0.73584216
H        7.20102285       9.43435507      -0.71014165
O       -3.70572225       1.06274943      -6.79932280
C       -4.23326186      -0.01326301      -7.06330897
C       -3.72462609      -1.29939752      -6.44602790
C       -3.14163377      -1.01142023      -5.07072127
S       -2.54098377      -2.50121864      -4.32143441
O       -3.66538130      -3.39408593      -4.11588215
O       -1.33596285      -2.93661216      -4.99770522
C       -2.04423793      -2.02482178      -2.68293407
C       -2.45491754      -2.45315881      -1.43230099
C       -1.77308687      -1.77897125      -0.37550069
C       -0.87179633      -0.87179633      -0.87179633
S       -0.82842818      -0.82390267      -2.56397501
N       -5.30688700      -0.21912922      -7.91312765
C       -6.01607196       0.77027320      -8.62735915
C       -5.57390106       2.08720574      -8.77795770
C       -6.34479723       3.02152552      -9.47833687
C       -7.56489354       2.64079915     -10.02838804
Br      -8.61907847       3.91012047     -10.94890589
C       -8.01258842       1.32909760      -9.90009905
C       -7.23392863       0.39456160      -9.20990338
H       -2.96022191      -1.71510869      -7.11258079
H       -4.53352111      -2.03469089      -6.36811432
H       -3.90912650      -0.59402143      -4.40966198
H       -2.30902187      -0.30540247      -5.13832689
H       -3.20974999      -3.21909540      -1.29193017
H       -1.94043034      -1.96004390       0.67960117
H       -5.69347020      -1.15458993      -7.95399255
H       -4.62341615       2.42037249      -8.37258545
H       -5.98037690       4.04040704      -9.58218496
H       -8.96550854       1.02526419     -10.32576916
H       -7.60832679      -0.62165698      -9.11553579
O       -3.99397055      -1.16805280       6.61637788
C       -4.49181463      -0.08326213       6.90128135
C       -3.91426203       1.20436364       6.35142583
C       -3.29091052       0.94461219       4.98825256
S       -2.60916189       2.43694575       4.31752917
O       -3.69207040       3.37817748       4.10510149
O       -1.41539511       2.80214444       5.05274068
C       -2.06888140       2.00177233       2.68134006
C       -2.41664759       2.49010783       1.43362191
C       -1.72048479       1.82945737       0.37761664
C       -0.87179633       0.87179633       0.87179633
S       -0.89364986       0.76120435       2.56145165
N       -5.58840192       0.13186693       7.71887502
C       -6.35914519      -0.85541423       8.36942695
C       -5.97079937      -2.19257691       8.48643056
C       -6.80066078      -3.12203636       9.12298417
C       -8.02596601      -2.71596326       9.64247968
Br      -9.15908748      -3.97730416      10.47608056
C       -8.42085361      -1.38462343       9.54735971
C       -7.58361303      -0.45560700       8.92126439
H       -3.16086128       1.56677460       7.06027552
H       -4.69257361       1.97179679       6.27195591
H       -4.04766255       0.58043320       4.28471416
H       -2.48747011       0.20589833       5.05938279
H       -3.13752154       3.28837261       1.29488140
H       -1.84150802       2.05467775      -0.67531271
H       -5.94219496       1.07907389       7.78078383
H       -5.01844499      -2.54627550       8.10345963
H       -6.47743918      -4.15694863       9.20166427
H       -9.37746057      -1.06086046       9.94941340
H       -7.91725052       0.57667743       8.85159161
O        6.83455033      -3.64709248      -1.03934719
C        7.09447948      -4.18069072       0.03466365
C        6.46388076      -3.68628482       1.31988592
C        5.08642804      -3.11138080       1.02596643
S        4.32163075      -2.52746898       2.51453708
O        4.11787112      -3.66000790       3.39747035
O        4.98561929      -1.32075096       2.96390997
C        2.68304275      -2.03935128       2.02959975
C        1.43237083      -2.46249590       2.44551062
C        0.37553460      -1.78350602       1.76851818
C        0.87179633      -0.87179633       0.87179633
S        2.56391224      -0.81551030       0.83688332
N        7.95075250      -5.24948722       0.23890416
C        8.67759338      -5.94593074      -0.75036620
C        8.83465291      -5.49281688      -2.06281677
C        9.54769486      -6.25148300      -2.99756927
C       10.10401439      -7.47027569      -2.62180765
Br      11.04178847      -8.50807509      -3.89199968
C        9.96934333      -7.92870849      -1.31446194
C        9.26642464      -7.16220521      -0.37935943
H        7.12159347      -2.92008402       1.74623390
H        6.38656281      -4.50121269       2.04855082
H        4.43424425      -3.88061659       0.59794908
H        5.15304389      -2.27303285       0.32667449
H        1.29196728      -3.22405704       3.20475123
H       -0.67960130      -1.96002713       1.94044722
H        7.98756194      -5.64274203       1.17174871
H        8.42466765      -4.54290228      -2.39194082
H        9.65637541      -5.87869161      -4.01291221
H       10.39986129      -8.88068809      -1.01453587
H        9.16731845      -7.54488356       0.63331755
