146
Properties=species:S:1:pos:R:3 pbc="F F F"
O        6.28513084       6.40241347       0.51553661
C        6.70767027       6.74858907      -0.58328658
C        6.56635986       5.84378217      -1.78962155
C        5.31333041       4.99295058      -1.64720635
S        5.11968396       3.92507958      -3.04858535
O        4.92915506       4.74879280      -4.22711359
O        6.11836362       2.87639233      -3.00523635
C        3.55143620       3.12530293      -2.80496672
C        2.39989596       3.09750553      -3.57268792
C        1.36641901       2.31595818      -2.97489368
C        1.78170035       1.78170035      -1.78170035
S        3.37400222       2.19354985      -1.37846587
N        7.34307434       7.94142756      -0.88435403
C        7.61240284       8.99995900       0.00949185
C        7.50031902       8.89218017       1.39813410
C        7.75835704       9.99400172       2.22103810
C        8.12680006      11.21068892       1.65529447
Br       8.44672639      12.70595149       2.76510193
C        8.25742374      11.33058905       0.27471085
C        8.01063742      10.22406667      -0.54427840
H        7.46044377       5.21214491      -1.84503479
H        6.51960914       6.43562973      -2.71079952
H        4.42335314       5.62928453      -1.58988431
H        5.36288179       4.37003832      -0.74954320
H        2.31333764       3.61573770      -4.52141228
H        0.38442547       2.16050583      -3.40565384
H        7.54727076       8.12505667      -1.85943732
H        7.22553577       7.95789895       1.87809352
H        7.66426758       9.88624692       3.29864760
H        8.54317347      12.27849025      -0.17406187
H        8.11092687      10.34425909      -1.62004567
O       -4.11088913      -0.07017293      -7.99094564
C       -4.69078827      -1.12660567      -8.22215198
C       -4.30696133      -2.39827111      -7.49453113
C       -3.79228803      -2.05695336      -6.10424596
S       -3.33837210      -3.52844522      -5.22653156
O       -4.52962572      -4.33474106      -5.04069466
O       -2.12517319      -4.08094459      -5.79387451
C       -2.91344054      -2.97683361      -3.59143171
C       -3.42782723      -3.29577797      -2.34648421
C       -2.76964465      -2.59688482      -1.29074141
C       -1.78170035      -1.78170035      -1.78170035
S       -1.63090712      -1.84803069      -3.46708012
N       -5.72112612      -1.32128362      -9.12644619
C       -6.31822612      -0.33914080      -9.94550307
C       -5.78190367       0.93521765     -10.14767907
C       -6.44494288       1.86722316     -10.95360094
C       -7.65116426       1.52716501     -11.55819525
Br      -8.56070435       2.79580595     -12.62267756
C       -8.19126688       0.25688913     -11.37892421
C       -7.51988136      -0.67648104     -10.58262008
H       -3.53188683      -2.90333170      -8.08240494
H       -5.16575169      -3.07550930      -7.42477740
H       -4.56998834      -1.55038289      -5.52215075
H       -2.91244023      -1.40965702      -6.16036606
H       -4.23864714      -4.00276151      -2.20907898
H       -3.01334746      -2.69745995      -0.23977772
H       -6.16516714      -2.23175622      -9.13484140
H       -4.83839334       1.23503159      -9.70197943
H       -6.00855247       2.85262170     -11.09593611
H       -9.13401934      -0.01489646     -11.84680978
H       -7.96544847      -1.65923547     -10.45054770
O       -4.64480693      -0.16424500       7.69144577
C       -5.16933342       0.91273665       7.95747586
C       -4.65364180       2.19924906       7.34687271
C       -4.06660876       1.91420414       5.97267444
S       -3.45765833       3.40452460       5.23116596
O       -4.57796662       4.30232407       5.02477076
O       -2.25355607       3.83292316       5.91351307
C       -2.95658983       2.93235897       3.59275706
C       -3.36102401       3.36685283       2.34221257
C       -2.67777016       2.69405485       1.28544587
C       -1.78170035       1.78170035       1.78170035
S       -1.74480510       1.72737456       3.47383827
N       -6.24534205       1.11944427       8.80406962
C       -6.96084100       0.13004657       9.51198242
C       -6.52411716      -1.18907081       9.65931874
C       -7.30107080      -2.12310572      10.35335559
C       -8.52178540      -1.73988450      10.90029359
Br      -9.58408436      -3.00867840      11.81216999
C       -8.96413553      -0.42606017      10.77522659
C       -8.17945547       0.50812434      10.09140268
H       -3.89018701       2.60964063       8.01779583
H       -5.45951073       2.93783009       7.26869757
H       -4.83317876       1.50211610       5.30722713
H       -3.23687644       1.20484830       6.04073857
H       -4.11248521       4.13610702       2.20189540
H       -2.84051532       2.87965787       0.23041193
H       -6.62860498       2.05617870       8.84698108
H       -5.57337216      -1.52426633       9.25623535
H       -6.94081792      -3.14371370      10.45476267
H       -9.91749992      -0.12026375      11.19848941
H       -8.54973116       1.52607139       9.99942908
O        7.53839153      -4.88556261      -0.25194644
C        7.82191761      -5.38528864       0.83233967
C        7.26768116      -4.81206208       2.12002033
C        5.90365799      -4.19130421       1.85852515
S        5.22782824      -3.51464800       3.35087265
O        5.01574048      -4.60026535       4.28905562
O        5.95936751      -2.32002079       3.72060400
C        3.59139832      -2.97718894       2.91311860
C        2.34335884      -3.32903341       3.39769717
C        1.28727215      -2.63379938       2.73619935
C        1.78170035      -1.78170035       1.78170035
S        3.47165753      -1.79932488       1.67503552
N        8.64158311      -6.48045605       1.04681678
C        9.29626482      -7.24734279       0.05926238
C        9.41549413      -6.85557629      -1.27670533
C       10.05618095      -7.68174986      -2.20661015
C       10.57760451      -8.90678416      -1.80219416
Br      11.41683097     -10.03497197      -3.06422698
C       10.48028779      -9.30502728      -0.47201312
C        9.85004287      -8.47144899       0.45749063
H        7.97390205      -4.05785381       2.48586761
H        7.18824153      -5.59236274       2.88543412
H        5.20276042      -4.94884709       1.49091448
H        5.97463136      -3.38596206       1.12186989
H        2.20444130      -4.05210855       4.19393778
H        0.23410455      -2.75782520       2.95865538
H        8.70209978      -6.83633168       1.99333330
H        9.03111398      -5.90329397      -1.62906677
H       10.13653039      -7.35590881      -3.24057231
H       10.88383092     -10.26144687      -0.14955220
H        9.77873140      -8.80767852       1.48882171
C       -0.00445707       0.01189536      -1.78238275
H       -0.66409135       0.67374010      -2.43557963
H        0.65740317      -0.63156657      -2.45157240
C       -0.90989263      -0.90692880      -0.91072765
C        0.90977584       0.90977584      -0.90977584
C       -0.00465871       1.77757030       0.00794375
H       -0.66225468       2.44313916      -0.64384735
H        0.64322798       2.43503045       0.67728295
C       -1.78241447       0.00034974      -0.00472694
H       -2.45427497      -0.65498947       0.64260836
H       -2.43311707       0.67328779      -0.65473579
C       -0.91132561       0.90220522       0.91563759
C       -0.01476271      -0.02253852       1.78660255
H       -0.67934791      -0.69751639       2.42135241
H        0.63392994       0.61504881       2.47327442
C        0.01484550      -1.77751727      -0.01636693
H        0.67870853      -2.42144646      -0.68295456
H       -0.62264859      -2.45592969       0.64226336
C        1.78714474       0.01002794       0.00389507
H        2.44202412       0.67113390       0.66197326
H        2.45385902      -0.65136977      -0.64189061
C        0.91606151      -0.90478549       0.90901405
