133
Properties=species:S:1:pos:R:3 pbc="F F F"
C        0.00000000       0.00000000       0.00000000
O        5.37522681       5.49250945       1.42544064
C        5.79776625       5.83868505       0.32661745
C        5.65645584       4.93387815      -0.87971752
C        4.40342638       4.08304656      -0.73730233
S        4.20977993       3.01517556      -2.13868133
O        4.01925104       3.83888877      -3.31720956
O        5.20845959       1.96648830      -2.09533233
C        2.64153218       2.21539890      -1.89506270
C        1.48999194       2.18760151      -2.66278389
C        0.45651499       1.40605415      -2.06498966
C        0.87179633       0.87179633      -0.87179633
S        2.46409819       1.28364582      -0.46856184
N        6.43317032       7.03152354       0.02554999
C        6.70249881       8.09005497       0.91939588
C        6.59041499       7.98227615       2.30803812
C        6.84845302       9.08409769       3.13094212
C        7.21689603      10.30078489       2.56519850
C        7.34751972      10.42068503       1.18461487
C        7.10073340       9.31416264       0.36562563
H        6.55053974       4.30224089      -0.93513077
H        5.60970511       5.52572571      -1.80089550
H        3.51344912       4.71938051      -0.67998029
H        4.45297776       3.46013430       0.16036083
H        1.40343362       2.70583368      -3.61150826
H       -0.52547856       1.25060180      -2.49574981
H        6.63736674       7.21515264      -0.94953330
H        6.31563174       7.04799492       2.78799755
H        6.75436355       8.97634289       4.20855163
H        7.63326945      11.36858622       0.73584216
H        7.20102285       9.43435507      -0.71014165
C        7.46072673      11.44039383       3.41103422
C        7.66493493      12.39481631       4.11942163
Br       7.99512233      13.93803675       5.26482417
O       -4.35626222       1.27678145      -6.36281486
C       -4.81700364       0.18353164      -6.67636185
C       -4.15535851      -1.09871620      -6.21597679
C       -3.47984212      -0.87204625      -4.87188690
S       -2.69905340      -2.35908483      -4.30549858
O       -3.72627231      -3.35995293      -4.08912413
O       -1.52648260      -2.63250476      -5.11129286
C       -2.10135385      -1.97387061      -2.67676932
C       -2.36609647      -2.53496691      -1.43931397
C       -1.65103425      -1.89071839      -0.38580617
C       -0.87179633      -0.87179633      -0.87179633
S       -0.97977274      -0.68511363      -2.55141949
N       -5.94056812      -0.04631692      -7.45225883
C       -6.78605658       0.93158632      -8.01868765
C       -6.46542254       2.28980268      -8.08903315
C       -7.36657882       3.20653274      -8.64156250
C       -8.59552353       2.76632976      -9.12328866
C       -8.92400206       1.41461165      -9.07419947
C       -8.01600517       0.49915682      -8.53242205
H       -3.42104577      -1.39170013      -6.97516550
H       -4.89299345      -1.90545828      -6.13787459
H       -4.21783468      -0.57721579      -4.11775944
H       -2.71541811      -0.09313591      -4.94419721
H       -3.04216320      -3.37243008      -1.30618227
H       -1.71093386      -2.16947425       0.65953506
H       -6.25317289      -1.00558426      -7.54329553
H       -5.51298203       2.67089706      -7.73354415
H       -7.09524337       4.25828340      -8.68519485
H       -9.88297279       1.06405676      -9.44709748
H       -8.29828628      -0.55005926      -8.49717402
C       -9.53174899       3.71318061      -9.67151796
C      -10.31583781       4.50616819     -10.13066000
Br     -11.58364311       5.78836205     -10.87305385
O       -3.95257621      -1.15393729       6.64365670
C       -4.45467534      -0.07029753       6.92545604
C       -3.88691196       1.21742313       6.36571641
C       -3.26941759       0.95372032       5.00063736
S       -2.59919207       2.44605124       4.31839350
O       -3.68820967       3.38038659       4.10675311
O       -1.40350865       2.82148176       5.04528981
C       -2.06527856       2.00503685       2.68167837
C       -2.42224784       2.48486909       1.43326041
C       -1.72818097       1.82230072       0.37707712
C       -0.87179633       0.87179633       0.87179633
S       -0.88410686       0.77009262       2.56210639
N       -5.54804538       0.14337018       7.74772830
C       -6.31006037      -0.84450162       8.40759916
C       -5.91398234      -2.17894548       8.52961616
C       -6.73549600      -3.10938503       9.17549762
C       -7.96017709      -2.70704871       9.69935405
C       -8.36264974      -1.37834564       9.59928578
C       -7.53369934      -0.44825428       8.96382535
H       -3.13170697       1.58759213       7.06861230
H       -4.66971086       1.98028711       6.28632835
H       -4.02793620       0.58179387       4.30307984
H       -2.46168776       0.21966355       5.07139992
H       -3.14808904       3.27855244       1.29413407
H       -1.85597988       2.04126440      -0.67637123
H       -5.90654625       1.08900550       7.80650094
H       -4.96179997      -2.52962781       8.14345696
H       -6.40635353      -4.14213624       9.25793753
H       -9.31882399      -1.05751896      10.00470849
H       -7.87319567       0.58186196       8.89046193
C       -8.81526955      -3.66953965      10.34435644
C       -9.53140949      -4.47562581      10.88454594
Br     -10.68934719      -5.77899896      11.75798668
O        7.11551870      -3.13253200      -0.80575508
C        7.34265093      -3.71956708       0.24761584
C        6.60081168      -3.35306589       1.51617393
C        5.20910032      -2.84743098       1.16724397
S        4.31485112      -2.41387172       2.63491398
O        4.13242928      -3.61363303       3.42928706
O        4.86686880      -1.20067696       3.20273447
C        2.68093161      -1.99825317       2.07280900
C        1.43779711      -2.52608119       2.37649904
C        0.38243427      -1.87096595       1.67415858
C        0.87179633      -0.87179633       0.87179633
S        2.55517082      -0.70708880       0.95404624
N        8.25414467      -4.74373690       0.44126229
C        9.08677298      -5.32522120      -0.53883627
C        9.29524399      -4.77613935      -1.80673032
C       10.11487916      -5.42410609      -2.73737666
C       10.72697098      -6.62798668      -2.40247523
C       10.54147115      -7.18061592      -1.13849719
C        9.73136883      -6.52423259      -0.20633100
H        7.17756926      -2.57737446       2.03296768
H        6.53268939      -4.21826990       2.18536703
H        4.63815669      -3.62568521       0.64896801
H        5.26314962      -1.96154827       0.52805334
H        1.30135611      -3.34415857       3.07526087
H       -0.66720124      -2.12456606       1.76350824
H        8.25855917      -5.19557434       1.34791917
H        8.84396873      -3.83393231      -2.10227192
H       10.26189485      -4.97797152      -3.71771155
H       11.01516528      -8.12163100      -0.87078277
H        9.59471755      -6.97943192       0.77137009
C       11.55253713      -7.30576568      -3.36821648
C       12.24394879      -7.87340559      -4.17702477
Br      13.36190296      -8.79123132      -5.48479937
