129
Properties=species:S:1:pos:R:3 pbc="F F F"
C        0.00000000       0.00000000       0.00000000
C        0.88152723       0.88152723      -0.88152723
C        1.73719547       0.29594165      -1.81115070
C        2.54014434       1.10483218      -2.62222996
C        2.50076798       2.50276921      -2.50604320
C        1.63380769       3.07189922      -1.55990620
C        0.82488869       2.26641735      -0.75236046
C        3.33392467       3.33793981      -3.35981170
O        3.63420116       4.58186975      -2.88831626
N        4.43341875       5.25062844      -3.79695323
C        4.60749034       4.40346212      -4.82656789
C        3.93520785       3.17781281      -4.58489065
C        5.39513634       4.76440566      -6.01150016
O        5.50729022       3.98846317      -6.95494220
N        5.96222471       6.01754620      -5.91875609
C        6.76940708       6.69484947      -6.85097406
C        7.11606322       6.19065892      -8.10395739
C        7.92420128       6.95030193      -8.95426319
Br       8.39216983       6.26877478     -10.65646609
C        8.39234770       8.20737734      -8.56823768
C        8.05028358       8.71928062      -7.31742222
C        7.24295925       7.96189580      -6.47133975
O        6.89120844       8.44110876      -5.23507582
H        1.78880829      -0.78506715      -1.91320655
H        3.20580746       0.62584994      -3.33740932
H        1.57085090       4.15304477      -1.44852440
H        0.15685118       2.73070037      -0.03147599
H        3.89506180       2.31622961      -5.23439339
H        5.78576040       6.52860072      -5.05412114
H        6.76859484       5.21881549      -8.43819193
H        9.02130942       8.79162769      -9.23527986
H        8.41805449       9.69730419      -7.02400409
H        7.29461760       9.31696539      -5.11285153
C       -0.88152723      -0.88152723      -0.88152723
C       -0.74789446      -2.26671056      -0.82968281
C       -1.56009013      -3.07353178      -1.63358456
C       -2.50543675      -2.50389330      -2.50025035
C       -2.62087156      -1.10537652      -2.53936503
C       -1.81526133      -0.29630713      -1.73209804
C       -3.35266812      -3.35118060      -3.32782747
O       -3.85748289      -2.78549802      -4.46140626
N       -4.63009165      -3.70638800      -5.14452077
C       -4.59525756      -4.83220092      -4.41006187
C       -3.78957162      -4.65195418      -3.25638551
C       -5.32001223      -6.04609380      -4.80493613
O       -5.30397585      -7.04856575      -4.09815400
N       -5.97530411      -5.91273321      -6.01048969
C       -6.76586202      -6.85260651      -6.69676207
C       -7.05704475      -8.13113460      -6.22250018
C       -7.85620676      -8.98557376      -6.98698589
Br      -8.25522556     -10.71952709      -6.34265805
C       -8.36733443      -8.57975596      -8.22087233
C       -8.08149864      -7.30304810      -8.70243967
C       -7.28627637      -6.45139280      -7.93852564
O       -6.98909151      -5.19000198      -8.38829953
H       -0.01735392      -2.72893754      -0.17065623
H       -1.43440072      -4.15311838      -1.58154762
H       -3.34954610      -0.62945910      -3.19341487
H       -1.92768814       0.78397069      -1.77531009
H       -3.58230370      -5.37841430      -2.48496679
H       -5.87073316      -5.01499232      -6.48275678
H       -6.67904839      -8.47942687      -5.26712700
H       -8.98753193      -9.25083394      -8.80985110
H       -8.48222868      -6.99445273      -9.66268136
H       -7.40959120      -5.05990773      -9.25493559
C       -0.88152723       0.88152723       0.88152723
C       -1.42717233       2.05343996       0.36367553
C       -2.23934901       2.85730750       1.17054996
C       -2.50626681       2.50174576       2.50156783
C       -1.94304832       1.31822848       3.00433630
C       -1.13632910       0.50896358       2.19837383
C       -3.35937944       3.33991829       3.33237845
O       -3.18092938       3.24255719       4.68090060
N       -4.04889646       4.09746506       5.33463890
C       -4.76020284       4.70722004       4.37009748
C       -4.34794573       4.26232777       3.08763780
C       -5.80984490       5.68739715       4.67380010
O       -6.47145310       6.20142970       3.77781279
N       -5.93583357       5.93938130       6.02331214
C       -6.82663550       6.80624891       6.68234620
C       -7.80327960       7.56688409       6.04051583
C       -8.63838134       8.39611724       6.79426781
Br      -9.96668615       9.42595022       5.92477433
C       -8.50937969       8.47677484       8.18180818
C       -7.53586519       7.71945044       8.83167079
C       -6.70517109       6.89163191       8.07939180
O       -5.73875225       6.13574329       8.69289748
H       -1.22791731       2.35155402      -0.66252364
H       -2.65010300       3.77170342       0.74726030
H       -2.13588601       1.00693820       4.02959586
H       -0.71681455      -0.40614654       2.60835953
H       -4.74133012       4.57301784       2.13133684
H       -5.29194896       5.44004461       6.63648868
H       -7.93377233       7.52758251       4.96424742
H       -9.16244996       9.12497572       8.76079129
H       -7.44128729       7.78736711       9.91070837
H       -5.77125835       6.30338714       9.64978904
C        0.88152723      -0.88152723       0.88152723
C        2.21569169      -0.54021408       1.08838206
C        3.02081793      -1.34551001       1.90087853
C        2.50274940      -2.50078033       2.50605066
C        1.15630795      -2.82819605       2.28110911
C        0.34701022      -2.02165628       1.47500000
C        3.34542895      -3.32925513       3.35699211
O        2.97653766      -4.63514013       3.49270938
N        3.86960646      -5.29449835       4.31689560
C        4.77785909      -4.37405047       4.68561079
C        4.48717436      -3.11880916       4.09192778
C        5.89185561      -4.69216116       5.58702538
O        6.68541575      -3.82571606       5.93956378
N        5.92386882      -6.02063340       5.95402479
C        6.83240743      -6.68363845       6.79918472
C        7.88596111      -6.05902708       7.46569134
C        8.72972102      -6.81471750       8.28432788
Br      10.15752339      -5.96750014       9.19238717
C        8.53562287      -8.18768366       8.44465619
C        7.48451128      -8.82017336       7.78230178
C        6.64279947      -8.06542766       6.96796767
O        5.60098242      -8.66205273       6.30435788
H        2.63955874       0.34647671       0.62386567
H        4.06196765      -1.06335720       2.04374186
H        0.71856799      -3.71227802       2.74157405
H       -0.69437185      -2.29241447       1.32098492
H        5.03830258      -2.19782485       4.20955736
H        5.19793756      -6.61544083       5.55510387
H        8.06540802      -4.99371883       7.36647541
H        9.19703490      -8.76853438       9.08264769
H        7.33979145      -9.88798486       7.91158646
H        5.60086411      -9.61164013       6.51193029
