190
Properties=species:S:1:pos:R:3 pbc="F F F"
C        1.79133849       1.79133849      -1.79133849
C        2.71765994       2.64489782      -1.20942157
C        3.52411662       3.45022977      -2.01960858
C        3.41352753       3.41689232      -3.41614418
N        4.21259946       4.22869114      -4.25840220
C        5.26417835       5.04769778      -3.88628954
O        5.67480918       5.26582563      -2.75455890
C        5.92560988       5.77222007      -5.00276305
C        6.08521143       7.14856196      -4.81705628
C        6.67982789       7.88176597      -5.82421413
N        7.07813434       7.31152264      -6.98571633
C        6.96255428       5.98423432      -7.14718349
C        7.43507099       5.43178476      -8.32959911
C        7.39060006       4.05851847      -8.57525472
C        6.87273426       3.20659580      -7.61189182
C        6.39081325       3.73619761      -6.41611327
C        6.40340842       5.13549814      -6.17212805
C        6.93754304       9.32844216      -5.75469422
C        7.15447473      10.21021199      -6.80488485
C        7.41223489      11.54556274      -6.37287874
C        7.39303249      11.62942370      -5.00589688
S        7.06287398      10.15394595      -4.24834413
C        2.47049112       2.54306987      -4.00363209
C        2.30140572       2.42049838      -5.49467064
C        1.66509386       1.73563811      -3.17687319
H        2.82579056       2.69971520      -0.12928890
H        4.22675265       4.10779892      -1.51711969
H        3.98978928       4.20242367      -5.24457334
H        5.74272243       7.61426581      -3.89811208
H        7.86655186       6.09114618      -9.08041972
H        7.77927084       3.66140549      -9.50969336
H        6.85701169       2.13273766      -7.78211852
H        6.03123628       3.03752505      -5.66303876
H        7.13337683       9.89956408      -7.84352180
H        7.60742466      12.37922262      -7.03593684
H        1.55020086       1.66733536      -5.75616272
H        3.24421609       2.11288269      -5.95878976
H        1.97357153       3.37377353      -5.92059091
H        0.93839187       1.05749702      -3.61934730
C        7.63451657      12.84981155      -4.28068039
C        7.83675950      13.87188636      -3.67331159
Br       8.16376919      15.52449490      -2.69124759
C       -1.79133849      -1.79133849      -1.79133849
C       -1.79704073      -1.60821137      -3.16672724
C       -2.60479417      -2.41783666      -3.97132415
C       -3.41755782      -3.41439836      -3.41460786
N       -4.25098662      -4.24177382      -4.20693237
C       -4.31042459      -4.29943241      -5.58830866
O       -3.69088404      -3.61394691      -6.39036277
C       -5.28051765      -5.28220128      -6.13787408
C       -6.15598884      -4.78639724      -7.10844360
C       -7.09158533      -5.64585084      -7.64837181
N       -7.20041555      -6.93274710      -7.24221067
C       -6.33355437      -7.41965091      -6.34076680
C       -6.44360922      -8.75907618      -5.99376946
C       -5.56739997      -9.36502055      -5.09195273
C       -4.54277798      -8.62117208      -4.52727183
C       -4.41094602      -7.27374348      -4.85843463
C       -5.31804736      -6.64228000      -5.75070725
C       -8.05467649      -5.27077925      -8.69522369
C       -9.24951098      -5.89736622      -9.02269437
C       -9.92082840      -5.28621719     -10.12363078
C       -9.20523051      -4.22089688     -10.60222569
S       -7.76921409      -3.94237482      -9.75357516
C       -3.40527037      -3.59870851      -2.01321420
C       -4.22428906      -4.66172446      -1.33056123
C       -2.58607984      -2.77792451      -1.21360080
H       -1.18287730      -0.84095887      -3.63095849
H       -2.58165050      -2.22973784      -5.04028292
H       -4.86997296      -4.86329922      -3.70351410
H       -6.08971800      -3.74780206      -7.41758026
H       -7.22964366      -9.35631282      -6.45216128
H       -5.67906927     -10.41944948      -4.85185095
H       -3.83884852      -9.08951322      -3.84350613
H       -3.57068281      -6.72889054      -4.43222675
H       -9.61932200      -6.76667096      -8.49046974
H      -10.86432221      -5.62512822     -10.53313368
H       -4.05305200      -4.67198863      -0.24865832
H       -3.95282341      -5.65183834      -1.71122678
H       -5.29171027      -4.48325411      -1.49297160
H       -2.56714260      -2.91381220      -0.13428139
C       -9.62712761      -3.41752988     -11.72035103
C       -9.98046643      -2.74471001     -12.65678101
Br     -10.55178541      -1.65681718     -14.17090908
C       -1.79133849       1.79133849       1.79133849
C       -1.63350757       1.76878534       3.16968642
C       -2.44180392       2.57802319       3.97412787
C       -3.41749791       3.41409568       3.41497045
N       -4.25447989       4.23679417       4.20841874
C       -4.17694138       4.44724479       5.57397949
O       -3.40269833       3.92684476       6.36565063
C       -5.19200811       5.38126174       6.12732316
C       -5.89916806       4.91304456       7.23861705
C       -6.86690183       5.72769413       7.79121203
N       -7.16515808       6.94081681       7.26939843
C       -6.45832346       7.40733921       6.22830940
C       -6.75773885       8.67906573       5.75965029
C       -6.05546486       9.26411201       4.70479638
C       -5.01570403       8.57001861       4.10549925
C       -4.69548848       7.29080882       4.55682683
C       -5.42631898       6.67625316       5.60846247
C       -7.66668143       5.37849839       8.97549960
C       -8.88558560       5.91172561       9.37226036
C       -9.36424472       5.36574763      10.60068402
C       -8.48467698       4.44266759      11.10100851
S       -7.12165674       4.21801542      10.12549191
C       -3.57165056       3.43549359       2.01004892
C       -4.57423341       4.32201494       1.32032640
C       -2.75025038       2.61699133       1.21036344
H       -0.89007908       1.12801095       3.63670464
H       -2.28660563       2.51813023       5.04693539
H       -4.98988629       4.72857757       3.71832243
H       -5.68168950       3.92960175       7.64380906
H       -7.55585345       9.24072323       6.24154108
H       -6.31247974      10.26647794       4.37141201
H       -4.44516244       9.02650180       3.30020362
H       -3.84652537       6.79023100       4.09504373
H       -9.40644760       6.67074067       8.79927443
H      -10.29311757       5.65026509      11.07920146
H       -4.51819126       4.22484079       0.23066689
H       -4.38109183       5.37222359       1.56257312
H       -5.59130706       4.05403577       1.62259315
H       -2.85891521       2.62846152       0.12785947
C       -8.69294237       3.73459014      12.33747600
C       -8.86736465       3.14157527      13.37301752
Br      -9.14939071       2.18272040      15.04740058
C        1.79133849      -1.79133849       1.79133849
C        3.04179207      -2.18950530       1.34068196
C        3.84704835      -2.99606266       2.15084395
C        3.41395490      -3.41743642       3.41517272
N        4.20699845      -4.24146633       4.25122802
C        5.51445511      -4.64305558       4.04065497
O        6.22046158      -4.40445718       3.07027497
C        6.09066644      -5.50184732       5.10807925
C        6.70140512      -6.68025145       4.66917310
C        7.24363355      -7.52900271       5.61317173
N        7.17068186      -7.26555382       6.93913764
C        6.62117869      -6.11496042       7.35783297
C        6.61743601      -5.85730257       8.72171628
C        6.10025640      -4.67362099       9.25049586
C        5.58261137      -3.71092565       8.39768486
C        5.57375052      -3.94554703       7.02382658
C        6.06904782      -5.16111630       6.48087049
C        7.93984592      -8.78537419       5.29545932
C        8.16859399      -9.87129421       6.12968337
C        8.91407209     -10.91400900       5.50259528
C        9.23588468     -10.57815989       4.21430850
S        8.65386722      -9.05905698       3.75223988
C        2.14058405      -3.00608657       3.87052246
C        1.60446440      -3.38731750       5.22479286
C        1.33947077      -2.19228119       3.04585319
H        3.40651585      -1.88523765       0.36304117
H        4.81266992      -3.28876755       1.75023379
H        3.76660823      -4.56973708       5.10044097
H        6.73828392      -6.90840801       3.60840839
H        7.04522070      -6.59694695       9.39595011
H        6.12345498      -4.50297527      10.32393944
H        5.20081835      -2.77425900       8.79679051
H        5.20091274      -3.15237558       6.37851177
H        7.81564033      -9.90649336       7.15432901
H        9.19693243     -11.84215808       5.98349361
H        0.62009436      -2.94378416       5.40982043
H        2.27507548      -3.02838309       6.01242996
H        1.49503781      -4.47364049       5.29925767
H        0.35910669      -1.86775302       3.38837649
C        9.99852615     -11.42877569       3.33770668
C       10.63723838     -12.14116642       2.60355265
Br      11.66998203     -13.29304198       1.41648768
C       -0.00445707       0.01189536      -1.78238275
H       -0.66409135       0.67374010      -2.43557963
H        0.65740317      -0.63156657      -2.45157240
C       -0.90989263      -0.90692880      -0.91072765
C        0.90977584       0.90977584      -0.90977584
C       -0.00465871       1.77757030       0.00794375
H       -0.66225468       2.44313916      -0.64384735
H        0.64322798       2.43503045       0.67728295
C       -1.78241447       0.00034974      -0.00472694
H       -2.45427497      -0.65498947       0.64260836
H       -2.43311707       0.67328779      -0.65473579
C       -0.91132561       0.90220522       0.91563759
C       -0.01476271      -0.02253852       1.78660255
H       -0.67934791      -0.69751639       2.42135241
H        0.63392994       0.61504881       2.47327442
C        0.01484550      -1.77751727      -0.01636693
H        0.67870853      -2.42144646      -0.68295456
H       -0.62264859      -2.45592969       0.64226336
C        1.78714474       0.01002794       0.00389507
H        2.44202412       0.67113390       0.66197326
H        2.45385902      -0.65136977      -0.64189061
C        0.91606151      -0.90478549       0.90901405
