169
Properties=species:S:1:pos:R:3 pbc="F F F"
C        0.00000000       0.00000000       0.00000000
C        0.88143447       0.88143447      -0.88143447
C        1.80775592       1.73499380      -0.29951754
C        2.61421260       2.54032574      -1.10970456
C        2.50362350       2.50698830      -2.50624016
N        3.30269544       3.31878712      -3.34849817
C        4.35427432       4.13779375      -2.97638552
O        4.76490516       4.35592161      -1.84465488
C        5.01570586       4.86231605      -4.09285903
C        5.17530741       6.23865794      -3.90715226
C        5.76992387       6.97186194      -4.91431010
N        6.16823032       6.40161862      -6.07581231
C        6.05265025       5.07433029      -6.23727946
C        6.52516696       4.52188074      -7.41969509
C        6.48069604       3.14861444      -7.66535070
C        5.96283024       2.29669178      -6.70198779
C        5.48090923       2.82629359      -5.50620924
C        5.49350439       4.22559412      -5.26222402
C        6.02763902       8.41853814      -4.84479019
C        6.24457070       9.30030797      -5.89498082
C        6.50233087      10.63565871      -5.46297471
C        6.48312846      10.71951968      -4.09599286
S        6.15296996       9.24404193      -3.33844011
C        1.56058709       1.63316584      -3.09372806
C        1.39150170       1.51059436      -4.58476662
C        0.75518984       0.82573408      -2.26696916
H        1.91588654       1.78981117       0.78061513
H        3.31684862       3.19789489      -0.60721567
H        3.07988525       3.29251965      -4.33466931
H        4.83281840       6.70436179      -2.98820805
H        6.95664784       5.18124216      -8.17051570
H        6.86936681       2.75150147      -8.59978934
H        5.94710767       1.22283364      -6.87221449
H        5.12133226       2.12762102      -4.75313474
H        6.22347280       8.98966005      -6.93361777
H        6.69752063      11.46931860      -6.12603282
H        0.64029683       0.75743134      -4.84625870
H        2.33431207       1.20297866      -5.04888573
H        1.06366751       2.46386951      -5.01068689
H        0.02848785       0.14759299      -2.70944328
C        6.72461255      11.93990752      -3.37077637
C        6.92685547      12.96198234      -2.76340756
Br       7.25386517      14.61459087      -1.78134357
C       -0.88143447      -0.88143447      -0.88143447
C       -0.31563624      -1.92096432      -1.60566670
C       -1.12588674      -2.72702869      -2.41132747
C       -2.50595566      -2.50370587      -2.50719044
N       -3.34690904      -3.30045242      -3.32261926
C       -3.00299361      -4.44478633      -4.02067365
O       -1.89710095      -4.96102146      -4.10735924
C       -4.11134538      -5.07560351      -4.78393204
C       -3.83162807      -5.36729286      -6.12219667
C       -4.82497566      -5.94116019      -6.88996006
N       -6.05795950      -6.19564068      -6.39206107
C       -6.31350724      -5.95381311      -5.09693966
C       -7.57223931      -6.28186941      -4.61263407
C       -7.92116049      -6.10003627      -3.27346441
C       -6.98731776      -5.58870444      -2.38548761
C       -5.71631483      -5.25040023      -2.84669700
C       -5.36424652      -5.40268512      -4.21439090
C       -4.66352161      -6.32714031      -8.30030543
C       -5.65532776      -6.53529546      -9.24923627
C       -5.14269847      -6.94045110     -10.51781473
C       -3.77680604      -7.03688147     -10.48495349
S       -3.11291147      -6.64199084      -8.98054969
C       -3.07745292      -1.44539031      -1.76463778
C       -4.55340918      -1.14880584      -1.78464766
C       -2.25100184      -0.64151003      -0.95538121
H        0.75211516      -2.11863138      -1.55856637
H       -0.63524167      -3.52124664      -2.96547087
H       -4.30921108      -2.99879363      -3.39906951
H       -2.85262246      -5.14003433      -6.53273145
H       -8.30281641      -6.70767010      -5.29791918
H       -8.91409615      -6.37783634      -2.92872513
H       -7.24008558      -5.46716977      -1.33490044
H       -4.99280262      -4.89280448      -2.11648092
H       -6.70962500      -6.40532911      -9.03179652
H       -5.75196941      -7.15353819     -11.38736445
H       -4.80810356      -0.31721395      -1.11866936
H       -5.11986444      -2.02190003      -1.44441199
H       -4.87267430      -0.87154049      -2.79400912
H       -2.68160218       0.17362552      -0.37754746
C       -2.98068495      -7.43920294     -11.61540855
C       -2.31393354      -7.77614717     -12.56216466
Br      -1.23585289      -8.32095749     -14.09298922
C       -0.88143447       0.88143447       0.88143447
C       -1.99442260       0.33958114       1.50826352
C       -2.79916057       1.14939927       2.31568306
C       -2.50641988       2.50684033       2.50359175
N       -3.31040145       3.35015209       3.30942719
C       -4.38028252       2.98196756       4.10620351
O       -4.86802368       1.86678684       4.23067113
C       -5.02503089       4.09486042       4.85098962
C       -6.41570123       4.17337352       4.73204285
C       -7.07360824       5.19411518       5.38837249
N       -6.40882453       6.12745018       6.10938653
C       -5.07864500       6.02823222       6.25738279
C       -4.44278999       6.97276202       7.05119078
C       -3.06868405       6.93304285       7.29293428
C       -2.30481120       5.91688034       6.73981827
C       -2.91898361       4.95635238       5.93807607
C       -4.31129674       5.00849105       5.66153474
C       -8.53255105       5.38241044       5.37600586
C       -9.24817008       6.53963254       5.65205688
C      -10.66157595       6.35565851       5.58372984
C      -10.97112387       5.05923515       5.26828198
S       -9.61025680       4.08046513       5.04473007
C       -1.36950420       3.05271663       1.86526017
C       -0.96260524       4.49271412       2.03154332
C       -0.56578350       2.22631756       1.05579202
H       -2.25348394      -0.70815781       1.37975645
H       -3.66354298       0.68162543       2.77679077
H       -3.07112939       4.33279007       3.30315475
H       -6.95001311       3.44261393       4.13276121
H       -5.03945885       7.75903633       7.50991051
H       -2.60736861       7.68505201       7.92823700
H       -1.23795941       5.86150696       6.94268942
H       -2.29969230       4.14753632       5.55485940
H       -8.76768743       7.47967340       5.89938980
H      -11.39225445       7.13364663       5.76697097
H       -0.03710711       4.71679826       1.49008150
H       -0.78217379       4.71575588       3.08824679
H       -1.74074685       5.15600599       1.64147107
H        0.31317842       2.63611268       0.56258986
C      -12.32031946       4.57176279       5.14321418
C      -13.45027077       4.16350469       5.03846990
Br     -15.27730647       3.50338588       4.86910726
C        0.88143447      -0.88143447       0.88143447
C        0.61052628      -0.99414769       2.23759329
C        1.41922000      -1.80303678       3.04198612
C        2.50749791      -2.50399223       2.50536182
N        3.34675754      -3.32293343       3.30028975
C        3.17726495      -3.65928391       4.63190474
O        2.29803966      -3.27592511       5.39151688
C        4.22273649      -4.55293820       5.19520624
C        4.79274252      -4.12911561       6.39925948
C        5.78069917      -4.90805830       6.96733845
N        6.22686900      -6.04179027       6.37700198
C        5.65131955      -6.47013070       5.24280976
C        6.09951007      -7.66666033       4.70057239
C        5.54012121      -8.21107025       3.54346971
C        4.49515660      -7.55352899       2.91282423
C        4.02706463      -6.34972686       3.43662058
C        4.61244698      -5.77341170       4.59546385
C        6.44726448      -4.60132438       8.24237850
C        7.67229185      -5.06661998       8.70094766
C        7.99902560      -4.59459554      10.00734315
C        7.00324778      -3.79422072      10.50117251
S        5.70964386      -3.59565699       9.43015115
C        2.77681574      -2.38807473       1.12259053
C        3.90689204      -3.12534238       0.45462826
C        1.95390458      -1.57147736       0.32251114
H       -0.22235191      -0.45998637       2.68744812
H        1.17249057      -1.85136775       4.09810087
H        4.16033634      -3.70779384       2.83894403
H        4.45662942      -3.20647212       6.86228671
H        6.90239919      -8.20199064       5.20401585
H        5.91131483      -9.15564910       3.15369369
H        4.03482001      -7.98171981       2.02561597
H        3.17747714      -5.88095543       2.94365545
H        8.30333776      -5.72688445       8.11652841
H        8.90741567      -4.84385631      10.54160006
H        3.93135882      -2.93679139      -0.62416333
H        3.78857934      -4.20512289       0.59247423
H        4.86818828      -2.80331185       0.86672377
H        2.15093372      -1.47800460      -0.74341420
C        7.04652252      -3.18400487      11.80476904
C        7.08276512      -2.67294910      12.89653114
Br       7.14136635      -1.84661515      14.66181811
