190
Properties=species:S:1:pos:R:3 pbc="F F F"
O        8.19793504       3.11173289      -4.95661479
C        8.00453098       3.24020221      -6.16128460
C        6.85142548       2.53837965      -6.86615670
S        5.38029744       2.37087475      -5.80618966
C        5.16400468       4.00357214      -5.37240779
N        5.66368178       5.04572088      -5.93842010
C        4.99429146       6.14174766      -5.20482005
C        6.04153942       6.97651454      -4.47433513
C        4.21628041       6.98078166      -6.21437724
N        4.04408562       5.58459052      -4.21224008
C        4.18716358       4.29307094      -4.30074368
C        3.40070730       3.38751986      -3.43841899
C        2.10260837       3.79685850      -3.09047198
C        1.29769956       3.00065607      -2.27183297
C        1.79145533       1.79145533      -1.79145533
C        3.08934313       1.38733241      -2.10140759
C        3.90088378       2.19349940      -2.90992133
N        8.80418681       3.97352191      -7.02799989
C        9.82487501       4.87688013      -6.67497203
C       10.01106443       5.36267972      -5.37795061
C       11.02997060       6.28057414      -5.10373695
C       11.87104487       6.70947057      -6.12533481
Br      13.25667787       7.93845595      -5.75167772
C       11.69418933       6.23883294      -7.42430663
C       10.66444870       5.33236677      -7.69793984
H        7.18971223       1.54058878      -7.16135032
H        6.56651373       3.08368489      -7.77269829
H        6.58020801       6.37484123      -3.73307852
H        5.57632039       7.81361499      -3.94160236
H        6.78306637       7.38277300      -5.17082382
H        3.47152968       6.37013636      -6.73856530
H        4.88431067       7.40428989      -6.97270289
H        3.68390051       7.80269582      -5.72453584
H        1.71074967       4.74572926      -3.45421953
H        0.29580642       3.33578801      -2.01592376
H        3.48353759       0.45187036      -1.71129502
H        4.92342927       1.87400637      -3.09028924
H        8.65889768       3.82798379      -8.01838776
H        9.35828621       5.06679528      -4.56166798
H       11.15052764       6.65323758      -4.09002149
H       12.34730235       6.57020998      -8.22716854
H       10.54447017       4.97874026      -8.71867345
O       -2.52724433      -7.45667286      -6.28236554
C       -3.39070306      -8.19539971      -5.81991501
C       -3.65957942      -8.27335750      -4.32302492
S       -3.39636781      -6.68085195      -3.48014210
C       -4.42485140      -5.69828098      -4.41685222
N       -5.36587878      -6.06971359      -5.21223038
C       -5.96893444      -4.77512565      -5.59679908
C       -5.81835331      -4.57273201      -7.10130378
C       -7.43675402      -4.79455532      -5.18012998
N       -5.28559434      -3.66489161      -4.89043027
C       -4.33220759      -4.23679760      -4.21197301
C       -3.41298692      -3.43300523      -3.38065400
C       -3.93781794      -2.28137646      -2.77074445
C       -3.13133604      -1.46343098      -1.97542158
C       -1.79145533      -1.79145533      -1.79145533
C       -1.24833278      -2.91306052      -2.41668983
C       -2.05411489      -3.72411305      -3.22607657
N       -4.18037141      -9.06651822      -6.55881898
C       -4.31022866      -9.10623424      -7.96026427
C       -3.85090879      -8.09380085      -8.80698511
C       -4.03825005      -8.18620225     -10.18982940
C       -4.67909576      -9.29607561     -10.73067889
Br      -4.91912144      -9.42748658     -12.60020352
C       -5.14775408     -10.31045737      -9.89911744
C       -4.97209793     -10.20754725      -8.51511013
H       -2.98122519      -9.01676133      -3.89366482
H       -4.68784872      -8.60095217      -4.13409601
H       -4.76194958      -4.53470073      -7.39147745
H       -6.28000872      -3.63136472      -7.42016429
H       -6.28474455      -5.39052077      -7.66139786
H       -7.53397672      -4.94753948      -4.09871514
H       -7.97617063      -5.60958333      -5.67554948
H       -7.93420797      -3.85068732      -5.42623689
H       -4.98294651      -2.01159419      -2.91615775
H       -3.55805130      -0.57768598      -1.51178091
H       -0.19696363      -3.16025885      -2.28948050
H       -1.58804847      -4.56077072      -3.73890569
H       -4.69938691      -9.76403169      -6.04185063
H       -3.36729398      -7.20293854      -8.41651695
H       -3.68221325      -7.38260445     -10.82896901
H       -5.64974389     -11.17994552     -10.31499146
H       -5.34617804     -11.01046343      -7.88524241
O       -8.39123552       4.07174912       3.80329809
C       -8.49985402       3.89385942       5.01230434
C       -7.74327913       2.78354551       5.72913719
S       -6.11207102       2.45637212       4.98891871
C       -5.45781434       4.02744426       5.05472601
N       -5.86328146       5.02471876       5.75982254
C       -4.81351120       6.03237231       5.49497566
C       -5.43620247       7.24536759       4.81081903
C       -4.17347508       6.41032590       6.82763834
N       -3.77122172       5.46132079       4.60837370
C       -4.19527934       4.26359243       4.32210643
C       -3.41335661       3.38051463       3.43277491
C       -2.01402464       3.49597901       3.47993520
C       -1.20370645       2.70210235       2.66437980
C       -1.79145533       1.79145533       1.79145533
C       -3.17950567       1.68867330       1.70990417
C       -3.99135528       2.49577270       2.51717653
N       -9.33083244       4.61719025       5.85768591
C      -10.01380302       5.81012202       5.55280212
C       -9.74759102       6.58404477       4.42005896
C      -10.44665117       7.77398048       4.19365005
C      -11.42013967       8.18942978       5.09628080
Br     -12.37457927       9.78963355       4.78259872
C      -11.69254065       7.43185373       6.23293451
C      -10.98076377       6.24995403       6.46403751
H       -8.34528663       1.87151268       5.67485202
H       -7.60130241       3.03577776       6.78581674
H       -5.87247891       6.97282839       3.84282046
H       -4.68507602       8.02142448       4.62503724
H       -6.23489046       7.68019194       5.42158079
H       -3.73538708       5.53071331       7.31413095
H       -4.91563393       6.82931532       7.51635419
H       -3.37347790       7.14554793       6.69210634
H       -1.54518249       4.21213132       4.15338464
H       -0.12305775       2.80671007       2.71775037
H       -3.64084331       0.99120143       1.01465823
H       -5.06834852       2.42689682       2.39247954
H       -9.48476232       4.23785244       6.78265447
H       -8.97826381       6.30128491       3.70720075
H      -10.21650660       8.36566104       3.31161906
H      -12.45134078       7.75091499       6.94242510
H      -11.20938298       5.67492239       7.35757851
O        2.45253748      -7.03401778       6.77972747
C        3.18352070      -7.90445050       6.31804658
C        3.27841305      -8.15807543       4.81947336
S        3.08260904      -6.63698069       3.83777212
C        4.29878499      -5.68525123       4.55594838
N        5.27991101      -6.07718274       5.29072900
C        6.04567716      -4.82466328       5.47051873
C        6.08086132      -4.46011724       6.95141054
C        7.45017717      -5.04507491       4.91618724
N        5.40179194      -3.72132485       4.71779942
C        4.32846254      -4.24965325       4.20286242
C        3.40748938      -3.43596675       3.38319002
C        3.97326636      -2.41408529       2.60258721
C        3.16912960      -1.59516712       1.80589189
C        1.79145533      -1.79145533       1.79145533
C        1.21220984      -2.78013561       2.58573769
C        2.01786729      -3.59077657       3.39566064
N        3.95964002      -8.77967605       7.06639254
C        4.23716757      -8.69535790       8.44420169
C        3.97479456      -7.56052629       9.21637390
C        4.30197233      -7.53642564      10.57588372
C        4.88579134      -8.65104106      11.16901785
Br       5.31437355      -8.62343142      13.00900657
C        5.15886476      -9.78732896      10.41113518
C        4.84415149      -9.80242481       9.04817902
H        2.48746371      -8.86157472       4.54261290
H        4.24269589      -8.61293712       4.56726390
H        5.07133382      -4.27865256       7.33814139
H        6.66486279      -3.54801058       7.11866436
H        6.52293476      -5.26488140       7.54884703
H        7.41325611      -5.31332812       3.85364711
H        7.95769513      -5.86143809       5.44217022
H        8.06189273      -4.14155503       5.00768441
H        5.04945205      -2.24702190       2.61422450
H        3.62768274      -0.81119428       1.20864117
H        0.13405872      -2.92238917       2.59025508
H        1.53058529      -4.31706322       4.04007637
H        4.34801759      -9.57710238       6.58014926
H        3.54138502      -6.66492502       8.78043943
H        4.09857094      -6.63984606      11.15536970
H        5.61532461     -10.66129612      10.86806015
H        5.06647957     -10.69938826       8.47601605
C       -0.00445707       0.01189536      -1.78238275
H       -0.66409135       0.67374010      -2.43557963
H        0.65740317      -0.63156657      -2.45157240
C       -0.90989263      -0.90692880      -0.91072765
C        0.90977584       0.90977584      -0.90977584
C       -0.00465871       1.77757030       0.00794375
H       -0.66225468       2.44313916      -0.64384735
H        0.64322798       2.43503045       0.67728295
C       -1.78241447       0.00034974      -0.00472694
H       -2.45427497      -0.65498947       0.64260836
H       -2.43311707       0.67328779      -0.65473579
C       -0.91132561       0.90220522       0.91563759
C       -0.01476271      -0.02253852       1.78660255
H       -0.67934791      -0.69751639       2.42135241
H        0.63392994       0.61504881       2.47327442
C        0.01484550      -1.77751727      -0.01636693
H        0.67870853      -2.42144646      -0.68295456
H       -0.62264859      -2.45592969       0.64226336
C        1.78714474       0.01002794       0.00389507
H        2.44202412       0.67113390       0.66197326
H        2.45385902      -0.65136977      -0.64189061
C        0.91606151      -0.90478549       0.90901405
