177
Properties=species:S:1:pos:R:3 pbc="F F F"
C        0.00000000       0.00000000       0.00000000
O        7.28803102       2.20182887      -4.04671077
C        7.09462695       2.33029818      -5.25138057
C        5.94152146       1.62847562      -5.95625268
S        4.47039342       1.46097072      -4.89628564
C        4.25410065       3.09366812      -4.46250377
N        4.75377775       4.13581685      -5.02851607
C        4.08438743       5.23184364      -4.29491603
C        5.13163540       6.06661052      -3.56443111
C        3.30637639       6.07087764      -5.30447322
N        3.13418159       4.67468649      -3.30233605
C        3.27725956       3.38316691      -3.39083966
C        2.49080328       2.47761584      -2.52851497
C        1.19270434       2.88695447      -2.18056796
C        0.38779554       2.09075205      -1.36192895
C        0.88155130       0.88155130      -0.88155130
C        2.17943911       0.47742839      -1.19150356
C        2.99097975       1.28359538      -2.00001730
N        7.89428278       3.06361789      -6.11809586
C        8.91497098       3.96697611      -5.76506800
C        9.10116040       4.45277569      -4.46804658
C       10.12006658       5.37067012      -4.19383293
C       10.96114085       5.79956655      -5.21543079
C       10.78428531       5.32892891      -6.51440260
C        9.75454468       4.42246274      -6.78803582
H        6.27980821       0.63068476      -6.25144630
H        5.65660971       2.17378087      -6.86279427
H        5.67030398       5.46493721      -2.82317450
H        4.66641636       6.90371096      -3.03169833
H        5.87316234       6.47286898      -4.26091979
H        2.56162565       5.46023234      -5.82866128
H        3.97440664       6.49438586      -6.06279886
H        2.77399649       6.89279180      -4.81463182
H        0.80084565       3.83582524      -2.54431550
H       -0.61409760       2.42588399      -1.10601973
H        2.57363356      -0.45803366      -0.80139099
H        4.01352525       0.96410234      -2.18038522
H        7.74899365       2.91807976      -7.10848374
H        8.44838219       4.15689125      -3.65176395
H       10.24062362       5.74333355      -3.18011746
H       11.43739833       5.66030596      -7.31726451
H        9.63456614       4.06883623      -7.80876943
C       12.01717117       6.73621126      -4.93065609
C       12.90159657       7.52065121      -4.69215728
Br      14.33163764       8.78902426      -4.30652487
O       -1.80307626      -6.92759242      -4.80590198
C       -2.79150867      -7.51152218      -4.37327486
C       -3.22389182      -7.38364263      -2.91871530
S       -2.86498245      -5.73950116      -2.22316617
C       -3.66596758      -4.77141092      -3.37289403
N       -4.55516581      -5.13283371      -4.23011116
C       -4.95744690      -3.83635601      -4.81734420
C       -4.62639343      -3.82980108      -6.30648251
C       -6.45298505      -3.65176913      -4.57697306
N       -4.22618860      -2.72877746      -4.15623808
C       -3.42371834      -3.31391461      -3.31363318
C       -2.50884994      -2.51903626      -2.46904788
C       -2.95551752      -1.25467953      -2.05002972
C       -2.14650811      -0.43819430      -1.25577413
C       -0.88155130      -0.88155130      -0.88155130
C       -0.41166714      -2.11999651      -1.31670741
C       -1.21769105      -2.93140782      -2.12549356
N       -3.59613054      -8.37562914      -5.10423685
C       -3.58139650      -8.56643966      -6.49917893
C       -2.91925674      -7.71498909      -7.38773685
C       -2.96945628      -7.94957255      -8.76554078
C       -3.67614967      -9.04175175      -9.25823677
C       -4.34614312      -9.89593015      -8.38554355
C       -4.30636487      -9.64960203      -7.00907634
H       -2.68697635      -8.13852172      -2.33644119
H       -4.29776038      -7.57650737      -2.81891709
H       -3.54822705      -3.93776026      -6.47242838
H       -4.93763157      -2.88924704      -6.77494705
H       -5.12435400      -4.65421897      -6.82837814
H       -6.68095232      -3.66505317      -3.50451378
H       -7.02953999      -4.45814067      -5.04391071
H       -6.80694091      -2.69639455      -4.97808464
H       -3.94036095      -0.89533708      -2.34528835
H       -2.51224123       0.53603796      -0.94160285
H        0.58391949      -2.45984344      -1.04106695
H       -0.80213099      -3.86711686      -2.48876495
H       -4.24533668      -8.94872154      -4.58149894
H       -2.37780168      -6.84023582      -7.03899989
H       -2.45579688      -7.26896877      -9.43930898
H       -4.90054480     -10.75063856      -8.76378543
H       -4.83678339     -10.32872536      -6.34666306
C       -3.71848601      -9.28940302     -10.67614949
C       -3.75394271      -9.49681096     -11.86365139
Br      -3.81127318      -9.83217206     -13.78374153
O       -6.72573761       1.68639867       5.12443437
C       -6.34845881       2.11922630       6.20862060
C       -4.95635132       1.82085121       6.74904723
S       -3.70653466       1.68987234       5.43124278
C       -3.95142960       3.19199601       4.66684692
N       -4.56247203       4.22548119       5.13015746
C       -4.30703476       5.22951206       4.07460028
C       -5.63291887       5.66864472       3.46111343
C       -3.56852107       6.40486539       4.70834078
N       -3.45415597       4.64547717       3.01157100
C       -3.28048947       3.40439769       3.36637897
C       -2.48086178       2.48678405       2.52928825
C       -1.39690402       3.03772715       1.82559560
C       -0.59650427       2.23801560       1.00595667
C       -0.88155130       0.88155130       0.88155130
C       -1.97348490       0.32697943       1.54790673
C       -2.78435832       1.13269243       2.35754168
N       -7.12066761       2.87072853       7.08460038
C       -8.36734216       3.46631271       6.81336022
C       -8.89463486       3.60112418       5.52622364
C      -10.12841775       4.22888827       5.32726360
C      -10.84239322       4.71696957       6.41677539
C      -10.32712026       4.59538277       7.70511380
C       -9.08568772       3.98040701       7.89894851
H       -4.99822314       0.87179808       7.29191804
H       -4.64136991       2.60117083       7.45064409
H       -6.14728991       4.82539548       2.98573030
H       -5.47677262       6.43329197       2.69176107
H       -6.30636104       6.07933720       4.22125287
H       -2.62088036       6.07739195       5.15224696
H       -4.16424114       6.85965805       5.50769218
H       -3.33680762       7.17711714       3.96749535
H       -1.17144395       4.09995826       1.90958417
H        0.23806390       2.68447837       0.47139165
H       -2.20908289      -0.72886593       1.43677394
H       -3.65613291       0.68017651       2.82170339
H       -6.76639940       2.98389493       8.02526282
H       -8.35323150       3.25235446       4.65145143
H      -10.51506560       4.33212942       4.31687962
H      -10.87939745       4.97497095       8.56060040
H       -8.70263833       3.89686072       8.91267275
C      -12.11788723       5.35342707       6.21272422
C      -13.18611347       5.88646023       6.04183136
Br     -14.91334494       6.74832976       5.76551207
O        1.68502808      -6.72278578       5.12875679
C        2.60538953      -7.39550511       4.67541107
C        2.94880492      -7.38561726       3.19182758
S        2.64672291      -5.76729697       2.41362989
C        3.57900920      -4.78493718       3.44632615
N        4.49848849      -5.15044591       4.26917628
C        5.01705236      -3.84946181       4.74463293
C        4.78506449      -3.72995837       6.24765417
C        6.50218170      -3.77811051       4.40143503
N        4.31346104      -2.73909518       4.05864792
C        3.42325797      -3.32110871       3.30689945
C        2.50562367      -2.52143654       2.46987388
C        3.00065601      -1.31706417       1.94250660
C        2.19306946      -0.49970409       1.14770299
C        0.88155130      -0.88155130       0.88155130
C        0.36603991      -2.05760917       1.42472197
C        1.17191393      -2.86882937       2.23384913
N        3.40154840      -8.26389060       5.41055753
C        3.46634449      -8.36741060       6.81326001
C        2.91717076      -7.42160922       7.68320269
C        3.04283408      -7.57402124       9.06771430
C        3.71189649      -8.67777445       9.58646725
C        4.26976192      -9.62583293       8.73202198
C        4.15528568      -9.46232267       7.34743489
H        2.32969192      -8.13807880       2.69416853
H        3.99999869      -7.65401558       3.03917057
H        3.71546246      -3.75683500       6.48611823
H        5.18335833      -2.78479939       6.63366793
H        5.26456605      -4.55159416       6.79079090
H        6.65831999      -3.87202098       3.32017830
H        7.05747608      -4.59028043       4.88383486
H        6.93952812      -2.82511383       4.71677815
H        4.02287406      -1.00542826       2.15268406
H        2.59655104       0.42743237       0.74868744
H       -0.66440007      -2.34792255       1.23346841
H        0.72437802      -3.75132937       2.68230542
H        3.97882401      -8.90917114       4.88756201
H        2.40875489      -6.53637706       7.31190545
H        2.61702529      -6.82125797       9.72579137
H        4.79423022     -10.49013741       9.13060116
H        4.59861909     -10.21401037       6.69954234
C        3.83154828      -8.84022764      11.01226261
C        3.93175665      -8.97628219      12.20636622
Br       4.09378510      -9.19627089      14.13713077
