198
Properties=species:S:1:pos:R:3 pbc="F F F"
O        8.19793504       3.11173289      -4.95661479
C        8.00453098       3.24020221      -6.16128460
C        6.85142548       2.53837965      -6.86615670
S        5.38029744       2.37087475      -5.80618966
C        5.16400468       4.00357214      -5.37240779
N        5.66368178       5.04572088      -5.93842010
C        4.99429146       6.14174766      -5.20482005
C        6.04153942       6.97651454      -4.47433513
C        4.21628041       6.98078166      -6.21437724
N        4.04408562       5.58459052      -4.21224008
C        4.18716358       4.29307094      -4.30074368
C        3.40070730       3.38751986      -3.43841899
C        2.10260837       3.79685850      -3.09047198
C        1.29769956       3.00065607      -2.27183297
C        1.79145533       1.79145533      -1.79145533
C        3.08934313       1.38733241      -2.10140759
C        3.90088378       2.19349940      -2.90992133
N        8.80418681       3.97352191      -7.02799989
C        9.82487501       4.87688013      -6.67497203
C       10.01106443       5.36267972      -5.37795061
C       11.02997060       6.28057414      -5.10373695
C       11.87104487       6.70947057      -6.12533481
C       11.69418933       6.23883294      -7.42430663
C       10.66444870       5.33236677      -7.69793984
H        7.18971223       1.54058878      -7.16135032
H        6.56651373       3.08368489      -7.77269829
H        6.58020801       6.37484123      -3.73307852
H        5.57632039       7.81361499      -3.94160236
H        6.78306637       7.38277300      -5.17082382
H        3.47152968       6.37013636      -6.73856530
H        4.88431067       7.40428989      -6.97270289
H        3.68390051       7.80269582      -5.72453584
H        1.71074967       4.74572926      -3.45421953
H        0.29580642       3.33578801      -2.01592376
H        3.48353759       0.45187036      -1.71129502
H        4.92342927       1.87400637      -3.09028924
H        8.65889768       3.82798379      -8.01838776
H        9.35828621       5.06679528      -4.56166798
H       11.15052764       6.65323758      -4.09002149
H       12.34730235       6.57020998      -8.22716854
H       10.54447017       4.97874026      -8.71867345
C       12.92707520       7.64611529      -5.84056011
C       13.81150059       8.43055524      -5.60206130
Br      15.24154166       9.69892829      -5.21642889
O       -2.67887891      -7.78664886      -5.80075497
C       -3.65018420      -8.39408481      -5.36174878
C       -4.06020630      -8.29742414      -3.89833139
S       -3.71682067      -6.65917898      -3.18136220
C       -4.55276725      -5.68583507      -4.30138229
N       -5.45011885      -6.04792983      -5.14977407
C       -5.88346216      -4.74887554      -5.70852148
C       -5.57753379      -4.71226562      -7.20258969
C       -7.37760346      -4.59332979      -5.44050607
N       -5.15957341      -3.64024582      -5.04109699
C       -4.33358739      -4.22566122      -4.22172960
C       -3.41792004      -3.42959273      -3.37913338
C       -3.87826569      -2.17995929      -2.93171388
C       -3.06962631      -1.36323322      -2.13732908
C       -1.79145533      -1.79145533      -1.79145533
C       -1.30859620      -3.01453011      -2.25495682
C       -2.11457766      -3.82589446      -3.06383239
N       -4.45259382      -9.25938802      -6.09372676
C       -4.45807178      -9.42693460      -7.49172079
C       -3.82500495      -8.55000731      -8.37668249
C       -3.89439110      -8.76268380      -9.75720680
C       -4.59115629      -9.85827975     -10.25641422
C       -5.23229530     -10.73780440      -9.38722920
C       -5.17354329     -10.51353892      -8.00767311
H       -3.50126498      -9.05269390      -3.33769246
H       -5.12893328      -8.50985362      -3.78411001
H       -4.50066496      -4.79941623      -7.38804658
H       -5.91201173      -3.76946823      -7.65005778
H       -6.07052058      -5.53619949      -7.72994312
H       -7.58733786      -4.62808172      -4.36481176
H       -7.94854014      -5.40144259      -5.91132071
H       -7.75390395      -3.63753979      -5.81968844
H       -4.87369564      -1.83233988      -3.20466294
H       -3.44603851      -0.40056347      -1.80091621
H       -0.30307534      -3.34215657      -2.00147105
H       -1.68980832      -4.74840925      -3.44950730
H       -5.08343643      -9.85179494      -5.57003786
H       -3.29226273      -7.67217322      -8.02231351
H       -3.40335581      -8.06257759     -10.42785330
H       -5.77880442     -11.59533012      -9.77054632
H       -5.68154750     -11.21225866      -7.34807771
C       -4.65313764     -10.08322852     -11.67738444
C       -4.70504702     -10.27162312     -12.86744699
Br      -4.78898010     -10.57624125     -14.79167750
O       -8.38818775       3.76133028       4.11676470
C       -8.40196441       3.66436331       5.33969006
C       -7.52055749       2.66225784       6.07314650
S       -5.92355802       2.39309260       5.24071124
C       -5.38160431       4.00531304       5.15306725
N       -5.80965205       5.02134506       5.81682564
C       -4.85568110       6.07565560       5.40952248
C       -5.60907834       7.19132164       4.69198912
C       -4.15630368       6.59118796       6.66394768
N       -3.83695701       5.51354937       4.49040983
C       -4.19167129       4.27242351       4.31688340
C       -3.40967496       3.38207861       3.43489258
C       -2.02235643       3.59466403       3.37291839
C       -1.21357926       2.80032845       2.55628090
C       -1.79145533       1.79145533       1.79145533
C       -3.17078097       1.58976499       1.81753717
C       -3.98259568       2.39655686       2.62515196
N       -9.22419315       4.38926170       6.19225376
C      -10.01057192       5.50830981       5.85784544
C       -9.87790780       6.21452244       4.65926451
C      -10.67479378       7.33517622       4.40431170
C      -11.61272880       7.74823526       5.34488620
C      -11.75246947       7.05815496       6.54670447
C      -10.94319345       5.94669387       6.80486799
H       -8.05736769       1.71020503       6.12407861
H       -7.32631113       2.99918372       7.09740207
H       -6.08874223       6.82076881       3.77861673
H       -4.93022647       8.00076171       4.40054954
H       -6.39413251       7.61434556       5.32818512
H       -3.62401613       5.78055163       7.17566358
H       -4.87870893       7.00789645       7.37469806
H       -3.42248372       7.36691694       6.42173153
H       -1.56218923       4.38756758       3.96094165
H       -0.14218177       2.98108831       2.52424811
H       -3.62629885       0.81438094       1.20602317
H       -5.05774332       2.24644578       2.58353578
H       -9.28763819       4.06825313       7.14937791
H       -9.13993848       5.93346272       3.91334826
H      -10.54795930       7.87572639       3.47010101
H      -12.48281347       7.37580435       7.28606306
H      -11.06893772       5.42364571       7.74930045
C      -12.44081516       8.89554477       5.07739067
C      -13.13433748       9.85641650       4.85336316
Br     -14.25570442      11.41006480       4.49112962
O        2.58193343      -7.60373971       6.08060959
C        3.49284751      -8.28788472       5.62528555
C        3.82389699      -8.29319442       4.13887043
S        3.52875897      -6.67891976       3.34968313
C        4.47778701      -5.69585924       4.36633835
N        5.40105774      -6.06220900       5.18455602
C        5.93437171      -4.76170945       5.64477801
C        5.71597937      -4.62778917       7.14862056
C        7.41711624      -4.70565042       5.28867266
N        5.23430605      -3.65122490       4.95538527
C        4.33303589      -4.23198618       4.21595613
C        3.41509699      -3.43163636       3.37991281
C        3.91568066      -2.23587308       2.83838511
C        3.10828232      -1.41840752       2.04349877
C        1.79145533      -1.79145533       1.79145533
C        1.27076153      -2.95860333       2.34871828
C        2.07661838      -3.76979614       3.15788998
N        4.28789561      -9.15677188       6.36104112
C        4.36357429      -9.24917805       7.76397483
C        3.82957878      -8.29161869       8.63049728
C        3.96556207      -8.43357428      10.01514534
C        4.62975569      -9.53854555      10.53754902
C        5.17255332     -10.49830595       9.68646962
C        5.04784787     -10.34534720       8.30156024
H        3.19441035      -9.04455191       3.65268908
H        4.87151021      -8.57164500       3.97974169
H        4.64822552      -4.64372623       7.39617602
H        6.12532757      -3.68282562       7.52338454
H        6.19317245      -5.44887268       7.69461805
H        7.56340885      -4.80984162       4.20698087
H        7.96966685      -5.51840786       5.77322873
H        7.86498757      -3.75376367       5.59238094
H        4.94217581      -1.93107384       3.03744881
H        3.51609406      -0.49802825       1.63339588
H        0.23638057      -3.24185552       2.16846688
H        1.62554012      -4.64476254       3.61742222
H        4.85539232      -9.81118529       5.83869162
H        3.32544060      -7.40527398       8.25603488
H        3.55154552      -7.67183223      10.67040896
H        5.69314509     -11.36363229      10.08790350
H        5.47948205     -11.10607594       7.65632589
C        4.75999020      -9.69014842      11.96361197
C        4.86906161      -9.81711583      13.15793969
Br       5.04542086     -10.02241138      15.08906661
C       -0.00445707       0.01189536      -1.78238275
H       -0.66409135       0.67374010      -2.43557963
H        0.65740317      -0.63156657      -2.45157240
C       -0.90989263      -0.90692880      -0.91072765
C        0.90977584       0.90977584      -0.90977584
C       -0.00465871       1.77757030       0.00794375
H       -0.66225468       2.44313916      -0.64384735
H        0.64322798       2.43503045       0.67728295
C       -1.78241447       0.00034974      -0.00472694
H       -2.45427497      -0.65498947       0.64260836
H       -2.43311707       0.67328779      -0.65473579
C       -0.91132561       0.90220522       0.91563759
C       -0.01476271      -0.02253852       1.78660255
H       -0.67934791      -0.69751639       2.42135241
H        0.63392994       0.61504881       2.47327442
C        0.01484550      -1.77751727      -0.01636693
H        0.67870853      -2.42144646      -0.68295456
H       -0.62264859      -2.45592969       0.64226336
C        1.78714474       0.01002794       0.00389507
H        2.44202412       0.67113390       0.66197326
H        2.45385902      -0.65136977      -0.64189061
C        0.91606151      -0.90478549       0.90901405
