181
Properties=species:S:1:pos:R:3 pbc="F F F"
C        0.00000000       0.00000000       0.00000000
C        7.27295527       8.58971485      -6.79875462
C        7.41564283       7.52980807      -7.88532103
C        6.16617418       6.65911915      -8.09426642
C        6.42057147       5.61805901      -9.18763855
N        5.83038411       5.94166718      -6.84022046
C        4.62180937       6.33117106      -6.63250301
S        3.60935729       6.01437308      -5.30238986
C        4.72621495       4.99056388      -4.30581281
C        3.97023848       4.44995993      -3.10244048
O        3.97932705       5.04966117      -2.03050695
N        3.29949422       3.26536879      -3.37572775
C        2.50071228       2.50539992      -2.49618966
C        2.26242975       2.84508163      -1.16274523
C        1.45380505       2.03540825      -0.35580948
C        0.88073191       0.88073191      -0.88073191
C        1.10937285       0.52775344      -2.20701820
C        1.91663519       1.33885989      -3.01075297
C        4.07987912       7.23814534      -7.66654812
N        5.02152006       7.50108944      -8.52557153
C        2.72729766       7.80269171      -7.82830346
C        2.61463397       9.11343393      -8.31437941
C        1.35646914       9.67808322      -8.53998018
C        0.20873777       8.92997229      -8.28742835
Br      -1.49507906       9.68912041      -8.59251270
C        0.30851085       7.61828030      -7.82807157
C        1.56761815       7.04797042      -7.61498628
H        8.20304080       9.16281235      -6.71325977
H        7.07182984       8.13822502      -5.82178693
H        6.46736655       9.29453916      -7.02871947
H        8.26845357       6.89054430      -7.62566186
H        7.67187044       8.03656342      -8.82436954
H        5.53594228       4.98919565      -9.34656947
H        7.25136672       4.95526275      -8.92005536
H        6.65704053       6.09836127     -10.14436502
H        5.57697275       5.58240113      -3.95032269
H        5.11804960       4.15471034      -4.89645697
H        3.36983479       2.91232453      -4.32213451
H        2.68899885       3.73719455      -0.71416238
H        1.28128845       2.32156512       0.67945719
H        0.66621104      -0.37285110      -2.62436198
H        2.08051830       1.04117841      -4.04375413
H        3.50704539       9.69773148      -8.52989155
H        1.28477004      10.69491229      -8.91990779
H       -0.58511167       7.02626877      -7.64678287
H        1.61439470       6.00763538      -7.30772855
C       -8.60049783      -6.83203432      -7.22889260
C       -7.51825891      -7.88789348      -7.42461955
C       -6.61169340      -8.10543498      -6.20243137
C       -5.55092193      -9.16583761      -6.50950949
N       -5.91691800      -6.84238975      -5.85296401
C       -6.28098119      -6.67409620      -4.63040604
S       -5.97152082      -5.36160610      -3.59299330
C       -5.00067679      -4.31269320      -4.70922164
C       -4.47087551      -3.11499078      -3.93677260
O       -5.09663571      -2.05851637      -3.90434309
N       -3.26352651      -3.37482609      -3.30223816
C       -2.50550758      -2.49630988      -2.50048440
C       -2.87160159      -1.17801634      -2.22063868
C       -2.06188758      -0.37105329      -1.41208192
C       -0.88073191      -0.88073191      -0.88073191
C       -0.50128268      -2.19177420      -1.15108761
C       -1.31247300      -2.99560744      -1.95816761
C       -7.14854996      -7.74347555      -4.09254706
N       -7.41392912      -8.58554600      -5.04870592
C       -7.67491043      -7.95233342      -2.73104897
C       -8.97014699      -8.47370353      -2.59859679
C       -9.49741533      -8.74406270      -1.33305451
C       -8.72718084      -8.50097420      -0.19798337
Br      -9.43572117      -8.86653309       1.51570021
C       -7.43001911      -8.00659816      -0.31824545
C       -6.89681136      -7.74858195      -1.58518153
H       -9.19863544      -6.73821798      -8.14225949
H       -8.16812344      -5.84926953      -7.01444882
H       -9.27908717      -7.09920551      -6.41233250
H       -6.90709875      -7.59153453      -8.28602645
H       -8.00817221      -8.83280017      -7.69183102
H       -4.89639664      -9.33053692      -5.64477384
H       -4.91588581      -8.86150801      -7.34929101
H       -6.01347128     -10.12823161      -6.75806394
H       -5.62215410      -3.95145532      -5.53608714
H       -4.16071642      -4.87245792      -5.13604256
H       -2.88933007      -4.31008891      -3.40487485
H       -3.78481851      -0.74163310      -2.61390417
H       -2.36884954       0.65219350      -1.20674034
H        0.42007286      -2.59713031      -0.74066446
H       -0.99383255      -4.01651239      -2.15510590
H       -9.57117714      -8.68191114      -3.48158014
H      -10.50253944      -9.15098482      -1.24606586
H       -6.82041292      -7.83242937       0.56490232
H       -5.86579520      -7.41430542      -1.64965802
C       -7.06943557       8.62369065       6.96829852
C       -7.46122672       7.47657588       7.89296933
C       -6.35063170       6.44025863       8.12866942
C       -6.85136011       5.32481003       9.05009889
N       -5.94314950       5.82906710       6.84005515
C       -4.68270791       6.08643335       6.81634218
S       -3.55442410       5.79496893       5.57672718
C       -4.64510103       5.03315124       4.34433936
C       -3.81005571       4.53877958       3.17380359
O       -3.62037112       5.24922045       2.18990359
N       -3.31268411       3.25745557       3.37045107
C       -2.49963688       2.50583261       2.49683237
C       -2.06222197       2.95798369       1.25005095
C       -1.25392167       2.14813903       0.44296208
C       -0.88073191       0.88073191       0.88073191
C       -1.30921466       0.41506140       2.11986843
C       -2.11561755       1.22650276       2.92412775
C       -4.17650936       6.80007670       8.00798652
N       -5.18256777       7.08147659       8.78413667
C       -2.80053341       7.17160750       8.38615192
C       -2.60543682       8.39684914       9.04016135
C       -1.33046600       8.77314713       9.47091941
C       -0.24959509       7.92106583       9.25547749
Br       1.47642789       8.42526995       9.83771199
C       -0.43539096       6.69035321       8.62911855
C       -1.71346306       6.30721296       8.20989882
H       -7.91306779       9.31341190       6.85263322
H       -6.79980660       8.26098576       5.97104943
H       -6.22591658       9.19377157       7.37093703
H       -8.34042960       6.98026173       7.46396840
H       -7.77442508       7.90477470       8.85360361
H       -6.06778037       4.57764301       9.22628402
H       -7.71045866       4.80343453       8.61279163
H       -7.15017035       5.72253084      10.02706564
H       -5.37501773       5.76122843       3.97345041
H       -5.19656932       4.19238035       4.78026724
H       -3.53803493       2.81390458       4.25235432
H       -2.32925726       3.93992078       0.87117773
H       -0.92416207       2.52285093      -0.52361663
H       -1.02288264      -0.57386832       2.46870759
H       -2.43784990       0.83960578       3.88799516
H       -3.44794394       9.05984692       9.22687756
H       -1.19495387       9.72527835       9.97935791
H        0.40322573       6.01583407       8.47533164
H       -1.83597752       5.32082280       7.77295832
C        8.57964749      -6.77296361       7.30881364
C        7.53921596      -7.88288199       7.40867399
C        6.69773013      -8.08377476       6.13805486
C        5.67407072      -9.20237270       6.34982561
N        5.96194800      -6.83762370       5.81270005
C        6.37096133      -6.59797889       4.61654322
S        6.04749341      -5.25426682       3.62435999
C        4.98199741      -4.30076427       4.73982996
C        4.43230314      -3.09332042       3.99701533
O        5.01001197      -2.01016367       4.03931953
N        3.26691670      -3.37637075       3.29730330
C        2.50530703      -2.49609898       2.50089585
C        2.82271676      -1.15168649       2.29585336
C        2.01307779      -0.34477076       1.48717423
C        0.88073191      -0.88073191       0.88073191
C        0.55007685      -2.21805738       1.07601026
C        1.36111078      -3.02171771       1.88341956
C        7.30907975      -7.60281135       4.07268147
N        7.57063063      -8.47525813       5.00229228
C        7.90334366      -7.72614057       2.72880860
C        9.22557128      -8.18389516       2.63298086
C        9.81936027      -8.37294275       1.38222952
C        9.08910791      -8.11215087       0.22487963
Br       9.88771085      -8.36784339      -1.46900018
C        7.76672301      -7.68086413       0.30727559
C        7.16750898      -7.50445769       1.55860817
H        9.13244617      -6.69491551       8.25175124
H        8.11264171      -5.80124377       7.11795631
H        9.30471441      -6.97271694       6.51319382
H        6.87815418      -7.65310308       8.25340247
H        8.05961495      -8.81671638       7.65647206
H        5.06610954      -9.35584285       5.44975501
H        4.98976068      -8.96469411       7.17223004
H        6.16877277     -10.15400227       6.57699179
H        5.54965930      -3.95086179       5.60917547
H        4.15063303      -4.91555148       5.10303240
H        2.93167326      -4.33078278       3.34183778
H        3.69703051      -0.69426622       2.74905904
H        2.28168783       0.69920270       1.34091125
H       -0.33302652      -2.64408457       0.60666387
H        1.08110544      -4.06348017       2.02086522
H        9.79636725      -8.40575523       3.53254594
H       10.84484682      -8.73121452       1.32352878
H        7.18892884      -7.49334172      -0.59433059
H        6.12048014      -7.21878910       1.59048940
