189
Properties=species:S:1:pos:R:3 pbc="F F F"
C        0.00000000       0.00000000       0.00000000
C        7.27295527       8.58971485      -6.79875462
C        7.41564283       7.52980807      -7.88532103
C        6.16617418       6.65911915      -8.09426642
C        6.42057147       5.61805901      -9.18763855
N        5.83038411       5.94166718      -6.84022046
C        4.62180937       6.33117106      -6.63250301
S        3.60935729       6.01437308      -5.30238986
C        4.72621495       4.99056388      -4.30581281
C        3.97023848       4.44995993      -3.10244048
O        3.97932705       5.04966117      -2.03050695
N        3.29949422       3.26536879      -3.37572775
C        2.50071228       2.50539992      -2.49618966
C        2.26242975       2.84508163      -1.16274523
C        1.45380505       2.03540825      -0.35580948
C        0.88073191       0.88073191      -0.88073191
C        1.10937285       0.52775344      -2.20701820
C        1.91663519       1.33885989      -3.01075297
C        4.07987912       7.23814534      -7.66654812
N        5.02152006       7.50108944      -8.52557153
C        2.72729766       7.80269171      -7.82830346
C        2.61463397       9.11343393      -8.31437941
C        1.35646914       9.67808322      -8.53998018
C        0.20873777       8.92997229      -8.28742835
C        0.30851085       7.61828030      -7.82807157
C        1.56761815       7.04797042      -7.61498628
H        8.20304080       9.16281235      -6.71325977
H        7.07182984       8.13822502      -5.82178693
H        6.46736655       9.29453916      -7.02871947
H        8.26845357       6.89054430      -7.62566186
H        7.67187044       8.03656342      -8.82436954
H        5.53594228       4.98919565      -9.34656947
H        7.25136672       4.95526275      -8.92005536
H        6.65704053       6.09836127     -10.14436502
H        5.57697275       5.58240113      -3.95032269
H        5.11804960       4.15471034      -4.89645697
H        3.36983479       2.91232453      -4.32213451
H        2.68899885       3.73719455      -0.71416238
H        1.28128845       2.32156512       0.67945719
H        0.66621104      -0.37285110      -2.62436198
H        2.08051830       1.04117841      -4.04375413
H        3.50704539       9.69773148      -8.52989155
H        1.28477004      10.69491229      -8.91990779
H       -0.58511167       7.02626877      -7.64678287
H        1.61439470       6.00763538      -7.30772855
C       -1.08935858       9.50834867      -8.51986465
C       -2.17651427       9.99273888      -8.71453006
Br      -3.93435308      10.77595688      -9.02928756
C       -7.06582237      -8.62390395      -6.97169843
C       -7.46213752      -7.47563357      -7.89300084
C       -6.35432497      -6.43637782      -8.12885696
C       -6.85950066      -5.32001879      -9.04674957
N       -5.94536016      -5.82711024      -6.83980135
C       -4.68431104      -6.08177021      -6.81940218
S       -3.55395747      -5.79054477      -5.58161799
C       -4.64359634      -5.03380577      -4.34518953
C       -3.80707375      -4.54016466      -3.17540047
O       -3.61368765      -5.25233453      -2.19347299
N       -3.31293099      -3.25732977      -3.37033000
C       -2.49961722      -2.50583870      -2.49684593
C       -2.05849071      -2.95975189      -1.25201401
C       -1.25019643      -2.14990460      -0.44492176
C       -0.88073191      -0.88073191      -0.88073191
C       -1.31293910      -0.41329650      -2.11790890
C       -2.11932630      -1.22474251      -2.92217925
C       -4.17916378      -6.79170237      -8.01370642
N       -5.18630085      -7.07360748      -8.78827272
C       -2.80321069      -7.15939659      -8.39568554
C       -2.60687149      -8.38277837      -9.05279744
C       -1.33202767      -8.75534590      -9.48715897
C       -0.25255029      -7.90137480      -9.27221332
C       -0.43966123      -6.67244139      -8.64276010
C       -1.71764648      -6.29301323      -8.21991513
H       -7.90769234      -9.31571950      -6.85570108
H       -6.79480509      -8.26278746      -5.97424924
H       -6.22194389      -9.19125852      -7.37742277
H       -8.34148106      -6.98218101      -7.46099766
H       -7.77650095      -7.90241888      -8.85388356
H       -6.07794062      -4.57075701      -9.22300976
H       -7.71877650      -4.80147915      -8.60642917
H       -7.15957829      -5.71625913     -10.02392942
H       -5.37110940      -5.76428536      -3.97430181
H       -5.19785033      -4.19329368      -4.77807289
H       -3.54117761      -2.81234911      -4.25076711
H       -2.32255308      -3.94309520      -0.87470749
H       -0.91750656      -2.52600293       0.52011312
H       -1.02952966       0.57701606      -2.46520832
H       -2.44450962      -0.83644862      -3.88449260
H       -3.44833605      -9.04720820      -9.23912417
H       -1.19555030      -9.70606657      -9.99797325
H        0.39781575      -5.99642689      -8.48932883
H       -1.84135739      -5.30784932      -7.78055193
C        1.06232624      -8.28166950      -9.71951148
C        2.16353534      -8.60016631     -10.09412370
Br       3.94409731      -9.11514871     -10.69983996
C       -6.88410697       7.16431878       8.61299899
C       -7.89078048       7.43863450       7.50135695
C       -8.11821888       6.25910966       6.54223121
C       -9.12620437       6.64401826       5.45604640
N       -6.84344472       5.88782166       5.88100537
C       -6.73332535       4.64742407       6.20473402
S       -5.44855958       3.57331853       5.90424211
C       -4.32418351       4.68377071       5.01463742
C       -3.13617680       3.88655876       4.49990333
O       -2.10582596       3.79182326       5.16184594
N       -3.37327279       3.30636702       3.26095095
C       -2.49650429       2.50014568       2.50565189
C       -1.20389371       2.15789641       2.90846650
C       -0.39688500       1.34944142       2.09869636
C       -0.88073191       0.88073191       0.88073191
C       -2.16594299       1.21371522       0.46448629
C       -2.96993507       2.02052442       1.27578856
C       -7.85331805       4.11906175       7.01219277
N       -8.66959090       5.09594625       7.28264389
C       -8.13096474       2.74820659       7.47912150
C       -8.70508333       2.58862461       8.74873937
C       -9.04070724       1.31587230       9.21795300
C       -8.81011080       0.20110335       8.41492427
C       -8.26331855       0.34959573       7.14194844
C       -7.93974717       1.62441872       6.66640895
H       -6.77981929       8.05125913       9.24803449
H       -5.89420103       6.92889963       8.20874113
H       -7.20597555       6.33433819       9.25031144
H       -7.54067344       8.30986271       6.93412359
H       -8.84313104       7.72324372       7.96642863
H       -9.29739909       5.81034774       4.76396058
H       -8.76802351       7.49421559       4.86444572
H      -10.09566588       6.91164369       5.89245726
H       -3.95684754       5.47343521       5.67941381
H       -4.83617338       5.16145451       4.17158901
H       -4.28948647       3.45755134       2.85725602
H       -0.78817552       2.50116489       3.85101537
H        0.60600006       1.09482097       2.43457547
H       -2.55099178       0.85244143      -0.48571130
H       -3.97034698       2.26708791       0.92801594
H       -8.90361698       3.45646529       9.37458615
H       -9.48798788       1.20789655      10.20370569
H       -8.09846109      -0.51681977       6.50629865
H       -7.56485551       1.71357983       5.65132330
C       -9.15579728      -1.11181389       8.89487134
C       -9.44530972      -2.21138207       9.29682702
Br      -9.91342683      -3.98929082       9.94675535
C        7.31665147      -6.76747729       8.57729599
C        7.87842719      -7.55406429       7.39828046
C        8.07462967      -6.72821172       6.11671837
C        8.62071586      -7.61279564       4.99275753
N        6.77752410      -6.16226646       5.67248120
C        7.03849950      -4.90265867       5.64432526
S        5.98880318      -3.59920460       5.33811244
C        4.44276119      -4.50870637       5.07112407
C        3.36160006      -3.53809821       4.62294062
O        2.61001312      -3.01064913       5.43883292
N        3.35582164      -3.33540910       3.24936001
C        2.49832079      -2.49790146       2.50607960
C        1.48214391      -1.72126658       3.06684612
C        0.67466274      -0.91351231       2.25684774
C        0.88073191      -0.88073191       0.88073191
C        1.88819468      -1.64954478       0.30640504
C        2.69365871      -2.45456676       1.11802259
C        8.42969390      -4.55299112       6.00188755
N        9.05494056      -5.63848662       6.35475385
C        9.12190787      -3.25110090       5.98528406
C       10.05513095      -2.98854081       6.99877554
C       10.78063989      -1.79424634       6.99964631
C       10.57989520      -0.86385025       5.98239297
C        9.67363511      -1.12460266       4.95662496
C        8.95711217      -2.32565513       4.94780754
H        7.20676957      -7.42638146       9.44596189
H        6.32902893      -6.35347692       8.34933594
H        7.98051235      -5.94562377       8.86448906
H        7.19921467      -8.39101313       7.19443193
H        8.83762156      -7.98993571       7.70524611
H        8.76508117      -7.03518186       4.07144437
H        7.93160914      -8.43314415       4.76193153
H        9.59140342      -8.04397534       5.26438807
H        4.11720828      -4.99520853       5.99727975
H        4.57521433      -5.28501341       4.30898916
H        4.06233093      -3.82645221       2.71551069
H        1.28840787      -1.71669238       4.13525552
H       -0.10946602      -0.31603194       2.71683046
H        2.05506726      -1.63023160      -0.76757695
H        3.47384468      -3.04642406       0.64518210
H       10.22935041      -3.71812809       7.78718992
H       11.50315033      -1.60568614       7.79075364
H        9.52772571      -0.40810785       4.15210641
H        8.29788078      -2.52375134       4.10812653
C       11.32664233       0.36739341       5.97960582
C       11.95204306       1.39855998       5.97727158
Br      12.96326314       3.06586910       5.97349732
