197
Properties=species:S:1:pos:R:3 pbc="F F F"
C        0.00000000       0.00000000       0.00000000
C        0.88369868       0.88369868      -0.88369868
C        1.03738328       2.23521805      -0.57550482
C        1.85894388       3.03511051      -1.37335353
C        2.52380053       2.48813744      -2.47515209
C        2.35462833       1.13089496      -2.77523051
C        1.53499390       0.32329942      -1.98304640
C        3.45301412       3.29376441      -3.26790325
C        4.76342844       3.45708321      -3.02998860
S        5.64472412       2.89598622      -1.66480263
C        6.72726192       4.31361441      -1.33772938
C        6.02286566       5.50365175      -0.69254634
O        6.46454916       5.97834192       0.36348042
N        4.96520025       6.02405451      -1.40467553
C        4.19883907       7.17082252      -1.14570418
C        4.53574866       8.13320439      -0.19721658
C        3.76834580       9.29467125      -0.06945164
C        2.65126728       9.49927503      -0.88610599
Br       1.70734688      11.13630811      -0.68336144
C        2.27029166       8.52955114      -1.82161576
C        1.11138234       8.69899290      -2.76131114
C        3.05774031       7.36986700      -1.93392471
N        5.38461858       4.26480529      -3.91224132
C        4.27353323       4.57348035      -4.88030091
C        4.59098070       4.02754626      -6.28230732
C        5.52463272       5.06100633      -6.90604380
C        5.19453636       6.38727821      -6.23026526
C        4.16298499       6.07814731      -5.14551335
N        3.00064008       3.97310843      -4.34939865
H        0.54239802       2.67816111       0.28077515
H        2.01397841       4.08639641      -1.14776368
H        2.89120816       0.72519147      -3.62855510
H        1.43094651      -0.72483584      -2.22957955
H        7.27995968       4.64587822      -2.22140410
H        7.47873254       3.96064583      -0.62172231
H        4.70786316       5.47743647      -2.24731419
H        5.41558514       8.01789977       0.42567332
H        4.06989740      10.04182676       0.65787137
H        0.82594086       7.74595474      -3.21957638
H        1.37878980       9.39446601      -3.56369472
H        0.22605131       9.07087297      -2.23726338
H        2.78716784       6.59852596      -2.66233487
H        5.04615338       3.03051924      -6.27308539
H        3.67730086       3.96311441      -6.88855755
H        6.57071027       4.79616952      -6.71272744
H        5.39669214       5.11557819      -7.99166404
H        4.80224573       7.12031431      -6.94280994
H        6.10067321       6.81826429      -5.78824157
H        3.16230510       6.34040722      -5.51252546
H        4.36172709       6.69573249      -4.26745368
C       -0.88369868      -0.88369868      -0.88369868
C       -1.75362040      -0.29393357      -1.80055217
C       -2.54566834      -1.10338447      -2.61835511
C       -2.47025866      -2.49620077      -2.52063062
C       -1.59643818      -3.07329458      -1.59102105
C       -0.80057180      -2.27176663      -0.76900129
C       -3.23051414      -3.35537372      -3.42879392
C       -2.82725257      -3.79114917      -4.63209852
S       -1.39905299      -3.33388524      -5.47257475
C       -2.02087832      -3.18792992      -7.16979747
C       -2.85696955      -1.93714159      -7.42495261
O       -2.55168557      -1.17476697      -8.35295811
N       -3.97082077      -1.79559170      -6.62751782
C       -4.99124362      -0.83418955      -6.68993260
C       -5.16301526       0.04937806      -7.75253244
C       -6.26322236       0.91134855      -7.78059489
C       -7.19795598       0.90131437      -6.74000669
Br      -8.69379865       2.06319259      -6.89641036
C       -7.02743935       0.04854145      -5.64256066
C       -8.01078147      -0.04897975      -4.51192516
C       -5.91439214      -0.81090135      -5.63623854
N       -3.73190158      -4.56196692      -5.26779670
C       -4.82587624      -4.66316065      -4.23827759
C       -5.01514776      -6.11555633      -3.77013019
C       -5.86833870      -6.77092413      -4.85242002
C       -6.67993585      -5.64631648      -5.48582749
C       -6.19670569      -4.34600539      -4.84393457
N       -4.47209423      -3.77093215      -3.08012078
H       -1.81965156       0.78289639      -1.90302882
H       -3.21852163      -0.67422674      -3.35539013
H       -1.54552919      -4.15757614      -1.54184940
H       -0.12506689      -2.74295444      -0.06766889
H       -2.56876912      -4.07349437      -7.50497851
H       -1.13441519      -3.11583677      -7.81084873
H       -4.05084139      -2.50560636      -5.87616607
H       -4.47383248       0.05544611      -8.58942522
H       -6.38871976       1.56946012      -8.63459315
H       -7.57722637      -0.56547227      -3.64877334
H       -8.89557960      -0.60865117      -4.83271977
H       -8.31401431       0.94232306      -4.16249641
H       -5.76047275      -1.49345218      -4.79410374
H       -4.07310844      -6.65561440      -3.62103516
H       -5.56308870      -6.14720582      -2.81867831
H       -5.22967684      -7.23992220      -5.61000819
H       -6.51243257      -7.55303776      -4.43846405
H       -7.75499300      -5.78200899      -5.32836800
H       -6.51130305      -5.62681241      -6.56906360
H       -6.90876906      -4.03969404      -4.06677468
H       -6.17331948      -3.55527008      -5.59632370
C       -0.88369868       0.88369868       0.88369868
C       -1.00294281       0.60093755       2.24422578
C       -1.79577806       1.41999864       3.05163122
C       -2.46771627       2.51656778       2.50280600
C       -2.34289686       2.78389368       1.13396327
C       -1.55228793       1.97027554       0.31877625
C       -3.23197596       3.43112997       3.35157585
C       -2.75349632       4.51423290       3.98277104
S       -1.11121389       5.01259565       4.08170343
C       -1.01226778       5.55799503       5.80834290
C       -0.97614797       4.41931995       6.82359584
O       -0.05779655       4.36761768       7.65399642
N       -2.04976666       3.55759187       6.78657177
C       -2.36792223       2.49775376       7.64968978
C       -1.73115861       2.26827996       8.86673107
C       -2.17441089       1.24650074       9.71155705
C       -3.25554817       0.43987179       9.34122835
Br      -3.82658631      -0.88160139      10.58203150
C       -3.88860245       0.62656616       8.10628995
C       -5.08096459      -0.17004648       7.66076827
C       -3.42698402       1.66125487       7.27329314
N       -3.67408070       5.17539647       4.71218803
C       -4.92608731       4.39841913       4.40280805
C       -5.95627824       5.27409661       3.67045943
C       -6.63864233       6.08339789       4.76964262
C       -6.52908491       5.24476129       6.03823362
C       -5.68301698       4.02303822       5.68059045
N       -4.55027762       3.20506116       3.56780838
H       -0.48132428      -0.23567494       2.69413465
H       -1.89297879       1.23711645       4.11804326
H       -2.86392529       3.64870227       0.73232717
H       -1.46307136       2.20585679      -0.73323794
H       -1.79642822       6.27074499       6.08006879
H       -0.06266823       6.09815163       5.90028083
H       -2.70537831       3.72605901       6.00117649
H       -0.91309375       2.89921369       9.19550416
H       -1.67875922       1.10787643      10.66721714
H       -5.25977581      -0.05461093       6.58630711
H       -5.97675087       0.16830766       8.19189201
H       -4.93381392      -1.23920717       7.83958091
H       -3.90837539       1.83437362       6.30527966
H       -5.51569517       5.92634993       2.90771290
H       -6.70895343       4.64981875       3.17020065
H       -6.12546729       7.04151932       4.91262063
H       -7.68053831       6.30514656       4.51824951
H       -7.51273770       4.94123376       6.41139852
H       -6.04733776       5.82762740       6.83221391
H       -6.34345961       3.16338620       5.50839197
H       -5.03201736       3.77247451       6.52042138
C        0.88369868      -0.88369868       0.88369868
C        2.27180933      -0.78121571       0.79508111
C        3.07551387      -1.57608879       1.61580526
C        2.49575406      -2.47047828       2.52085772
C        1.10066470      -2.56626379       2.59382532
C        0.28895938      -1.77540102       1.77697932
C        3.32329370      -3.24628599       3.44510209
C        3.72930585      -2.85765727       4.66353713
S        3.51517428      -1.30992387       5.38041482
C        5.12168057      -1.07016734       6.18675780
C        6.25941030      -0.73196531       5.22768815
O        6.94229372       0.28386669       5.42098363
N        6.49620055      -1.65980902       4.23792071
C        7.52769662      -1.70044152       3.28722763
C        8.65487480      -0.88364821       3.32764663
C        9.68225247      -1.05497441       2.39524181
C        9.58633212      -2.04179962       1.40851656
Br      11.05994827      -2.24192536       0.22514279
C        8.44662065      -2.85086988       1.32396802
C        8.29238030      -3.95798829       0.32131779
C        7.42640353      -2.66194044       2.27318806
N        4.49626752      -3.76420209       5.30119558
C        4.48185020      -4.91501588       4.33044840
C        3.80467224      -6.15127298       4.94488906
C        4.87905119      -6.79846089       5.81417077
C        6.21504158      -6.40032731       5.19671093
C        5.89653673      -5.43440101       4.05570791
N        3.76231930      -4.47632866       3.08449920
H        2.74335314      -0.08600294       0.11042792
H        4.15906638      -1.50523179       1.58384032
H        0.67267734      -3.25884811       3.31342928
H       -0.78613856      -1.86011348       1.86171530
H        5.41289161      -1.91026661       6.82408378
H        4.99913319      -0.20850957       6.85345793
H        5.80283967      -2.42978651       4.19998764
H        8.77236805      -0.13371765       4.10172590
H       10.56259623      -0.42410420       2.46715237
H        7.25110194      -4.29029712       0.25007292
H        8.90326083      -4.81760992       0.61607978
H        8.58462353      -3.63017735      -0.68061322
H        6.52732737      -3.28561362       2.23508768
H        2.90620171      -5.91647322       5.52708308
H        3.50843431      -6.86041679       4.16012172
H        4.81761392      -6.42058276       6.84141056
H        4.76006346      -7.88557307       5.85829784
H        6.76776675      -7.27035412       4.82724911
H        6.84517055      -5.91230831       5.94970020
H        5.93861236      -5.97518308       3.10144234
H        6.65461915      -4.64955259       4.02074151
