173
Properties=species:S:1:pos:R:3 pbc="F F F"
C        0.00000000       0.00000000       0.00000000
C        0.88121595       0.88121595      -0.88121595
C        2.23186290       1.04464123      -0.57102752
C        3.04013371       1.85500013      -1.37901519
C        2.48557304       2.53240283      -2.47071997
C        1.13390584       2.33446973      -2.78852125
C        0.33088073       1.51219056      -1.99498600
C        3.30211285       3.39375671      -3.37209975
O        2.97301129       3.40352809      -4.56125674
N        4.39177032       4.10580488      -2.83824807
C        4.49514339       4.84116975      -1.62080212
S        3.32100410       5.14548514      -0.46846773
C        5.89558699       5.33573495      -1.63097794
N        6.51313846       5.12681795      -2.80742579
C        5.48497836       4.54717628      -3.70187006
C        5.05104220       5.64317539      -4.71846078
C        5.70193005       5.27707023      -6.05369459
C        6.74294724       4.21599083      -5.73230271
C        6.12387972       3.44735416      -4.57068417
C        6.57230661       6.11223214      -0.59983149
C        7.37323177       5.47517473       0.35278459
C        8.05251016       6.22312109       1.31770686
C        7.92940906       7.61196161       1.32375978
C        7.13659909       8.26010556       0.37799980
C        6.46002018       7.50703684      -0.58373959
H        2.66674490       0.55447137       0.29719683
H        4.09601501       1.96626797      -1.13802193
H        0.70622406       2.82645158      -3.66090715
H       -0.71645222       1.37711618      -2.25373139
H        5.36864235       6.64573550      -4.40855070
H        3.96531156       5.69934889      -4.84691492
H        4.94333809       4.86388967      -6.73103197
H        6.14372906       6.14913018      -6.54614034
H        6.95376685       3.57391187      -6.59109657
H        7.68188816       4.68895689      -5.42495521
H        5.37848701       2.74763374      -4.96495513
H        6.87336339       2.85237549      -4.03563043
H        7.47934847       4.39440406       0.32189397
H        8.67741978       5.71369557       2.04312685
H        7.04350609       9.34084293       0.36799609
H        5.85551115       7.99976383      -1.34215931
C        8.63722643       8.38648002       2.31002333
C        9.23002348       9.03513919       3.13601906
Br      10.18852617      10.08396620       4.47158430
C       -0.88121595      -0.88121595      -0.88121595
C       -0.29759891      -1.84198657      -1.70794616
C       -1.10655390      -2.64952469      -2.51807044
C       -2.49370479      -2.46537680      -2.52961426
C       -3.06880024      -1.51714797      -1.67094861
C       -2.26530124      -0.72392410      -0.84883196
C       -3.40204351      -3.30643768      -3.35948811
O       -4.51073485      -3.55085501      -2.87620626
N       -2.94748732      -3.78725222      -4.60108373
C       -2.21030706      -3.12211395      -5.62469424
S       -1.70912866      -1.52759290      -5.69823540
C       -2.03052361      -4.17061955      -6.66115672
N       -2.75627810      -5.27596975      -6.41513434
C       -3.55741301      -4.96842760      -5.20818409
C       -5.03106618      -4.73158655      -5.65002564
C       -5.81222389      -5.98122312      -5.23924786
C       -4.76711506      -7.03057524      -4.89355048
C       -3.62164705      -6.21484200      -4.30542900
C       -1.30280251      -4.06229784      -7.91926989
C        0.02017333      -4.50524681      -8.01054844
C        0.70510602      -4.43671532      -9.22631508
C        0.05963741      -3.92565345     -10.35159485
C       -1.26007033      -3.48332808     -10.27530644
C       -1.93925060      -3.55423022      -9.05731580
H        0.78230346      -1.96909117      -1.73723174
H       -0.64427730      -3.40607703      -3.14995058
H       -4.15094024      -1.39746573      -1.64517682
H       -2.72961031       0.01059469      -0.19537972
H       -5.11962372      -4.57217494      -6.73112989
H       -5.48069056      -3.85119526      -5.17968954
H       -6.42448770      -5.75780364      -4.35596839
H       -6.48744455      -6.32029303      -6.03126200
H       -5.14999361      -7.77631324      -4.19246843
H       -4.44268362      -7.55335980      -5.79975684
H       -3.86313286      -5.96065845      -3.26728457
H       -2.68643648      -6.78676094      -4.28817189
H        0.50326148      -4.92328997      -7.13183006
H        1.72767868      -4.79381692      -9.28185026
H       -1.77404206      -3.09444393     -11.14786694
H       -2.97648779      -3.23389738      -8.98704913
C        0.75921016      -3.86415262     -11.60874066
C        1.34510235      -3.81264567     -12.66160028
Br       2.29244046      -3.72936329     -14.36398524
C       -0.88121595       0.88121595       0.88121595
C       -1.78945458       0.29467778       1.76339929
C       -2.59949688       1.10377202       2.57088012
C       -2.52793876       2.49718366       2.46357343
C       -1.58900092       3.07279575       1.59510015
C       -0.76750833       2.26772482       0.80282414
C       -3.35431160       3.40470563       3.30895208
O       -2.82776026       4.47052589       3.63950997
N       -4.64281434       2.99506236       3.69794657
C       -5.66527648       2.35172411       2.94011467
S       -5.67651940       1.93983705       1.31860052
C       -6.76628841       2.17486036       3.92115112
N       -6.54415070       2.82679755       5.07643394
C       -5.28159553       3.57482726       4.87760191
C       -5.63161341       5.08111377       4.69995120
C       -5.25029139       5.77157914       6.01082434
C       -5.01867730       4.65523992       7.01732356
C       -4.44720993       3.52335475       6.17135338
C       -8.05294381       1.52470943       3.70671700
C       -8.23800235       0.18739314       4.07022643
C       -9.48239364      -0.42453216       3.90006290
C      -10.54214894       0.30828452       3.36717743
C      -10.37224299       1.64314062       3.00332125
C       -9.12606777       2.24908247       3.17564637
H       -1.88242231      -0.78712283       1.82871997
H       -3.29575854       0.63814285       3.26640352
H       -1.49983071       4.15663243       1.53711965
H       -0.05085247       2.73302719       0.13051569
H       -6.69607026       5.23772667       4.48913162
H       -5.09022235       5.54958885       3.87176417
H       -4.32504599       6.34481668       5.86839706
H       -6.02332675       6.47093121       6.34474162
H       -4.34087965       4.95896026       7.81893538
H       -5.96826272       4.35454149       7.47299605
H       -3.38532081       3.71992666       5.98582841
H       -4.51083360       2.55987952       6.69065619
H       -7.41040212      -0.36496121       4.50641765
H       -9.61127516      -1.45979540       4.19650874
H      -11.19369790       2.22441539       2.59823964
H       -8.98376616       3.29621940       2.91744874
C      -11.82895731      -0.31631313       3.20103893
C      -12.90665932      -0.83941365       3.06189793
Br     -14.64921232      -1.68522296       2.83691871
C        0.88121595      -0.88121595       0.88121595
C        1.88674631      -1.65730054       0.30348480
C        2.69432436      -2.46746870       1.11235597
C        2.46658734      -2.53047849       2.49163002
C        1.47280675      -1.72181242       3.06227765
C        0.67895989      -0.89938815       2.25970926
C        3.30513847      -3.36257645       3.40025439
O        3.49811066      -2.90847827       4.53120719
N        3.84074949      -4.57261575       2.92245803
C        3.23343808      -5.59208738       2.13158980
S        1.65896211      -5.69983420       1.57616066
C        4.32065180      -6.58817107       1.95347701
N        5.39364799      -6.33108220       2.72265201
C        5.02123328      -5.16153261       3.55125881
C        4.75225445      -5.65891128       5.00151264
C        5.96220409      -5.23446804       5.83602273
C        7.03236085      -4.82135782       4.83752211
C        6.23460998      -4.22215471       3.68515336
C        4.27698371      -7.82448369       1.18290285
C        4.76458872      -7.85805960      -0.12702640
C        4.75791439      -9.05221036      -0.85220037
C        4.26384283     -10.21380691      -0.26003885
C        3.77745774     -10.19507811       1.04616900
C        3.78661024      -8.99844104       1.76574534
H        2.04906081      -1.64699706      -0.77203842
H        3.48557992      -3.05939917       0.65532582
H        1.31795114      -1.73546328       4.14016837
H       -0.09105930      -0.28527356       2.72018109
H        4.62574191      -6.74686974       5.05031689
H        3.84300479      -5.23188207       5.43668852
H        5.69048054      -4.37936097       6.46841823
H        6.30546697      -6.03706157       6.49647104
H        7.74207329      -4.10985968       5.26684232
H        7.59472617      -5.69930225       4.50177184
H        5.93886617      -3.20113161       3.95107810
H        6.83513569      -4.15595417       2.77027945
H        5.16867747      -6.95106718      -0.56788609
H        5.14902289      -9.06269197      -1.86372636
H        3.40131173     -11.09600638       1.51903482
H        3.43128067      -8.97255502       2.79359860
C        4.26601860     -11.44858823      -1.00092371
C        4.26784080     -12.48271758      -1.62141478
Br       4.27078715     -14.15481727      -2.62469635
