194
Properties=species:S:1:pos:R:3 pbc="F F F"
C        1.79111998       1.79111998      -1.79111998
C        3.14176692       1.95454525      -1.48093154
C        3.95003773       2.76490415      -2.28891921
C        3.39547707       3.44230686      -3.38062400
C        2.04380987       3.24437375      -3.69842527
C        1.24078475       2.42209459      -2.90489002
C        4.21201687       4.30366073      -4.28200378
O        3.88291532       4.31343211      -5.47116077
N        5.30167435       5.01570890      -3.74815209
C        5.40504741       5.75107377      -2.53070614
S        4.23090812       6.05538917      -1.37837175
C        6.80549101       6.24563898      -2.54088197
N        7.42304248       6.03672197      -3.71732981
C        6.39488238       5.45708031      -4.61177409
C        5.96094623       6.55307941      -5.62836480
C        6.61183407       6.18697425      -6.96359861
C        7.65285126       5.12589486      -6.64220674
C        7.03378374       4.35725819      -5.48058820
C        7.48221064       7.02213616      -1.50973551
C        8.28313580       6.38507876      -0.55711944
C        8.96241418       7.13302511       0.40780284
C        8.83931308       8.52186563       0.41385575
C        8.04650312       9.17000958      -0.53190423
C        7.36992420       8.41694087      -1.49364362
H        3.57664893       1.46437540      -0.61270720
H        5.00591904       2.87617199      -2.04792595
H        1.61612808       3.73635561      -4.57081117
H        0.19345180       2.28702020      -3.16363542
H        6.27854637       7.55563953      -5.31845472
H        4.87521559       6.60925292      -5.75681894
H        5.85324211       5.77379370      -7.64093599
H        7.05363308       7.05903421      -7.45604437
H        7.86367087       4.48381589      -7.50100059
H        8.59179218       5.59886092      -6.33485924
H        6.28839103       3.65753777      -5.87485915
H        7.78326741       3.76227952      -4.94553445
H        8.38925250       5.30430808      -0.58801005
H        9.58732381       6.62359959       1.13322283
H        7.95341012      10.25074695      -0.54190793
H        6.76541518       8.90966786      -2.25206334
C        9.54713046       9.29638404       1.40011931
C       10.13992750       9.94504321       2.22611504
Br      11.09843019      10.99387022       3.56168027
C       -1.79111998      -1.79111998      -1.79111998
C       -1.20720965      -2.74872217      -2.62131190
C       -2.01617044      -3.55625767      -3.43143300
C       -3.40375295      -3.37520049      -3.43945448
C       -3.97904190      -2.43019246      -2.57737454
C       -3.17547806      -1.63701025      -1.75528105
C       -4.31206621      -4.21643755      -4.26917761
O       -5.41911873      -4.46442692      -3.78396254
N       -3.85922350      -4.69344623      -5.51286561
C       -3.12583668      -4.02436158      -6.53662907
S       -2.62839938      -2.42855806      -6.60771161
C       -2.94603235      -5.07013533      -7.57584427
N       -3.66875347      -6.17766142      -7.33067938
C       -4.46786265      -5.87462507      -6.12124906
C       -5.94303159      -5.64010496      -6.55925389
C       -6.72046222      -6.89241036      -6.14953435
C       -5.67223054      -7.94018452      -5.80853778
C       -4.52727543      -7.12320058      -5.22115412
C       -2.22138350      -4.95736015      -8.83533867
C       -0.89762667      -5.39713081      -8.93057651
C       -0.21558172      -5.32433666     -10.14771807
C       -0.86471987      -4.81220533     -11.27039776
C       -2.18524089      -4.37301733     -11.19015871
C       -2.86152314      -4.44817418      -9.97081137
H       -0.12709364      -2.87333494      -2.65330294
H       -1.55361995      -4.31035182      -4.06604522
H       -5.06138679      -2.31299915      -2.54890893
H       -3.63996318      -0.90500247      -1.09914177
H       -6.03437418      -5.47847026      -7.63979618
H       -6.39357029      -4.76178205      -6.08593510
H       -7.33123973      -6.67234667      -5.26438540
H       -7.39669854      -7.23122023      -6.94079288
H       -6.05186125      -8.68834991      -5.10827621
H       -5.34866456      -8.46020690      -6.71664087
H       -4.76699791      -6.87188724      -4.18190281
H       -3.59074910      -7.69305476      -5.20727752
H       -0.41163043      -5.81605607      -8.05388414
H        0.80766134      -5.67901523     -10.20634668
H       -2.70204138      -3.98333411     -12.06068951
H       -3.89931516      -4.13033015      -9.89750106
C       -0.16811211      -4.74631619     -12.52896689
C        0.41529688      -4.69113403     -13.58301853
Br       1.35861989      -4.60190914     -15.28733089
C       -1.79111998       1.79111998       1.79111998
C       -3.10262959       1.40464902       2.06996511
C       -3.91189473       2.21457475       2.87739162
C       -3.42023310       3.42887594       3.36929888
C       -2.09057468       3.78957449       3.10645972
C       -1.27639399       2.97429592       2.31707945
C       -4.23185294       4.32066621       4.24516223
O       -3.61231842       4.94374082       5.11144895
N       -5.62541481       4.37915409       4.06096643
C       -6.38648761       4.44362958       2.85671014
S       -5.85217575       4.53838176       1.27411153
C       -7.79259862       4.46485174       3.33456160
N       -7.88753040       4.62266244       4.66690142
C       -6.50006528       4.81678589       5.14688561
C       -6.31578671       6.31998379       5.50661994
C       -6.32455587       6.40366515       7.03418593
C       -6.84041346       5.05868559       7.52185380
C       -6.31268910       4.07510384       6.48383718
C       -9.00621931       4.48017825       2.52768475
C       -9.68519461       3.28986992       2.25026946
C      -10.86938937       3.30907929       1.50916780
C      -11.37324059       4.52501810       1.04906427
C      -10.70800331       5.71942978       1.32098383
C       -9.52478872       5.69368642       2.06203354
H       -3.50962419       0.48206939       1.66203794
H       -4.92953970       1.89905511       3.10142217
H       -1.68930318       4.71343663       3.52055506
H       -0.25049899       3.27482600       2.11878243
H       -7.11398166       6.94680023       5.09185873
H       -5.37839778       6.73757050       5.12531917
H       -5.30216819       6.56683874       7.39896487
H       -6.93976211       7.23409865       7.39485089
H       -6.49133369       4.82618051       8.53097316
H       -7.93568516       5.05604215       7.53378503
H       -5.25807900       3.86667971       6.69602924
H       -6.84562801       3.11798307       6.52747029
H       -9.29433688       2.35210850       2.63512525
H      -11.38858886       2.37761986       1.31149185
H      -11.09812840       6.67127305       0.97666355
H       -9.00613738       6.61945122       2.30155777
C      -12.59952201       4.54929195       0.29458123
C      -13.62653270       4.56962129      -0.33729832
Br     -15.28712212       4.60249213      -1.35899411
C        1.79111998      -1.79111998       1.79111998
C        1.48139638      -3.14195208       1.95389526
C        2.28938324      -3.95022381       2.76425405
C        3.38060567      -3.39550121       3.44230104
C        3.69795522      -2.04363237       3.24502131
C        2.90442750      -1.24059601       2.42274586
C        4.28196790      -4.21202536       4.30368811
O        5.47099205      -3.88246234       4.31405380
N        3.74826423      -5.30217032       5.01510078
C        2.53057117      -5.40630766       5.74994849
S        1.37765823      -4.23273862       6.05427219
C        2.54110170      -6.80694068       6.24396958
N        3.71787288      -7.42394990       6.03527150
C        4.61214134      -6.39521303       5.45638241
C        5.62813314      -5.96130818       6.55294913
C        6.96376482      -6.61153010       6.18711202
C        6.64319574      -7.65225751       5.12549960
C        5.48163581      -7.03334375       4.35665056
C        1.50991647      -7.48436769       7.01979816
C        0.55786337      -8.28541611       6.38205451
C       -0.40708553      -8.96536479       7.12935719
C       -0.41373011      -8.84280977       8.51824330
C        0.53146573      -8.04988356       9.16706764
C        1.49323480      -7.37263360       8.41464030
H        0.61353423      -3.57698188       1.46321541
H        2.04875982      -5.00624282       2.87501434
H        4.56998103      -1.61580187       3.73751197
H        3.16281571      -0.19310908       2.28818263
H        5.31795511      -6.27942203       7.55526348
H        5.75614024      -4.87554943       6.60959777
H        7.64096681      -5.85251145       5.77449355
H        7.45604219      -7.05347772       7.05919174
H        7.50232326      -7.86248966       4.48367444
H        6.33603078      -8.59150371       5.59797784
H        5.87588873      -6.28752294       3.65737628
H        4.94710838      -7.78280376       3.76116923
H        0.58921845      -8.39109761       5.30125457
H       -1.13206142      -9.59035876       6.61940323
H        0.54101007      -7.95720974      10.24784519
H        2.25122494      -6.76802077       8.90790067
C       -1.40001951      -9.55131618       9.29209851
C       -2.22603688     -10.14469031       9.94020225
Br      -3.56163711     -11.10412607      10.98813118
C       -0.00445707       0.01189536      -1.78238275
H       -0.66409135       0.67374010      -2.43557963
H        0.65740317      -0.63156657      -2.45157240
C       -0.90989263      -0.90692880      -0.91072765
C        0.90977584       0.90977584      -0.90977584
C       -0.00465871       1.77757030       0.00794375
H       -0.66225468       2.44313916      -0.64384735
H        0.64322798       2.43503045       0.67728295
C       -1.78241447       0.00034974      -0.00472694
H       -2.45427497      -0.65498947       0.64260836
H       -2.43311707       0.67328779      -0.65473579
C       -0.91132561       0.90220522       0.91563759
C       -0.01476271      -0.02253852       1.78660255
H       -0.67934791      -0.69751639       2.42135241
H        0.63392994       0.61504881       2.47327442
C        0.01484550      -1.77751727      -0.01636693
H        0.67870853      -2.42144646      -0.68295456
H       -0.62264859      -2.45592969       0.64226336
C        1.78714474       0.01002794       0.00389507
H        2.44202412       0.67113390       0.66197326
H        2.45385902      -0.65136977      -0.64189061
C        0.91606151      -0.90478549       0.90901405
