197
Properties=species:S:1:pos:R:3 pbc="F F F"
C        0.00000000       0.00000000       0.00000000
C        0.88149275       0.88149275      -0.88149275
C        1.31655078       0.40748228      -2.12020577
C        2.13104571       1.20843111      -2.92642855
C        2.53670292       2.46852224      -2.46647885
C        2.06311007       2.95199486      -1.23979370
C        1.23808994       2.15549469      -0.44308959
C        3.40581100       3.35941617      -3.27521152
O        3.03215664       4.52336508      -3.37304908
N        4.55523810       2.84147922      -3.88483208
C        5.30016674       1.70253829      -3.57714546
S        5.47330681       0.82140631      -2.18856950
C        6.19706509       1.52089401      -4.75703156
N        6.27729805       2.60479599      -5.46809096
C        5.39207361       3.63261675      -4.80465727
C        4.61393739       4.28626012      -5.97760463
C        4.25465125       5.77455828      -5.92640438
C        5.46097129       6.69936484      -5.83407683
C        5.87827142       7.02203292      -4.40491404
C        5.91268162       5.84381231      -3.43889427
C        6.41436573       4.54312136      -4.05101128
C        6.85291783       0.27049482      -5.19027845
C        8.07996709       0.35790710      -5.86306554
C        8.70949868      -0.79823938      -6.33148151
C        8.10662137      -2.03932244      -6.13782968
C        6.87621992      -2.13458395      -5.48994975
C        6.24340100      -0.97806664      -5.02341916
H        1.02717674      -0.58365195      -2.46368680
H        2.44572543       0.84000220      -3.89889825
H        2.33728359       3.94912163      -0.90228008
H        0.88455149       2.53725759       0.51093501
H        3.69146357       3.71656526      -6.15837347
H        5.20116556       4.15484581      -6.89794224
H        3.73762762       6.00261097      -6.86826316
H        3.53201489       5.99992396      -5.13881623
H        6.30853828       6.27804173      -6.38901232
H        5.22174305       7.64803303      -6.33058572
H        5.20529619       7.78463534      -3.99236108
H        6.87173329       7.48861553      -4.43672920
H        4.94047353       5.71628736      -2.96652504
H        6.58540912       6.12016591      -2.61512141
H        6.85808493       3.95823637      -3.23329744
H        7.25905104       4.77218249      -4.71646964
H        8.54820080       1.32637480      -6.03071292
H        9.66246773      -0.71765099      -6.84978720
H        6.39752096      -3.10121796      -5.35094027
H        5.26889309      -1.07690283      -4.55351739
C        8.75195275      -3.23161265      -6.62320733
C        9.29241778      -4.23015571      -7.02971110
Br      10.16630402      -5.84471537      -7.68699333
C       -0.88149275      -0.88149275      -0.88149275
C       -0.92919931      -0.65674476      -2.25829476
C       -1.74193740      -1.45633002      -3.06763795
C       -2.53352953      -2.45448939      -2.48368509
C       -2.44929859      -2.69886089      -1.10673915
C       -1.62581583      -1.90796516      -0.30289324
C       -3.42007386      -3.32909833      -3.29126650
O       -3.33853617      -4.53058820      -3.05944644
N       -4.25838861      -2.76329860      -4.25986219
C       -4.73959881      -1.45925162      -4.38100007
S       -4.95803062      -0.24179338      -3.28345862
C       -5.30989292      -1.40518717      -5.75991057
N       -5.51674107      -2.59461414      -6.23882979
C       -5.06730650      -3.57764761      -5.18439352
C       -4.26134091      -4.64545225      -5.97100897
C       -4.30431521      -6.11404088      -5.53725782
C       -5.69755958      -6.72793616      -5.56891722
C       -6.45728500      -6.59249782      -4.25543556
C       -6.38596788      -5.22702734      -3.58239298
C       -6.41373628      -4.04863311      -4.54612898
C       -5.53182111      -0.19901429      -6.58285570
C       -6.58297298      -0.20723964      -7.51072711
C       -6.79662501       0.89558799      -8.34170379
C       -5.95254205       2.00054410      -8.25313067
C       -4.89130628       2.00929550      -7.34957494
C       -4.67425859       0.90499178      -6.51948671
H       -0.33833455       0.13884280      -2.70771984
H       -1.75485937      -1.28872223      -4.14104428
H       -3.02608016      -3.50463732      -0.65796781
H       -1.57576102      -2.10053869       0.76542564
H       -3.20856467      -4.33392267      -6.02391496
H       -4.60228475      -4.63529768      -7.01637118
H       -3.68484898      -6.66885901      -6.25479377
H       -3.83230784      -6.27335952      -4.56508772
H       -6.28493188      -6.29982444      -6.39083602
H       -5.61034477      -7.79877029      -5.79124674
H       -6.09269512      -7.34506218      -3.54453531
H       -7.50930797      -6.84556393      -4.44220612
H       -5.52647815      -5.18052179      -2.91628600
H       -7.25604860      -5.14887897      -2.91576887
H       -6.84963761      -3.20138244      -3.99859869
H       -7.13957068      -4.26505831      -5.34307418
H       -7.23626707      -1.07406768      -7.59495378
H       -7.61700499       0.87821990      -9.05581885
H       -4.22287713       2.86512871      -7.28949485
H       -3.81929528       0.92323950      -5.84945186
C       -6.16873657       3.13649771      -9.11130857
C       -6.34979948       4.08785886      -9.83003256
Br      -6.64256289       5.62612938     -10.99214848
C       -0.88149275       0.88149275       0.88149275
C       -1.08632986       0.53887212       2.21903685
C       -1.89992065       1.33888460       3.02710013
C       -2.53571933       2.45972283       2.47626184
C       -2.29289917       2.81816123       1.14383822
C       -1.46842257       2.02519053       0.34306112
C       -3.41547494       3.34159083       3.28337292
O       -3.20277753       4.54500400       3.18078928
N       -4.39392087       2.77678181       4.11084672
C       -5.00090694       1.52159995       4.05734361
S       -5.21821229       0.43638497       2.82868536
C       -5.70832626       1.39999898       5.36666542
N       -5.85331346       2.55584009       5.94103145
C       -5.21386909       3.58061217       5.03486636
C       -4.39694544       4.48713777       5.99371892
C       -4.26331470       5.98591159       5.70638763
C       -5.59143492       6.73020092       5.67277713
C       -6.22560268       6.79065119       4.28896451
C       -6.21150696       5.49145557       3.49242567
C       -6.44177681       4.23929156       4.32743000
C       -6.11947168       0.15240855       6.04181088
C       -7.25277779       0.18129589       6.86686606
C       -7.64716460      -0.96544262       7.56101883
C       -6.90199938      -2.13643674       7.43956598
C       -5.76117217      -2.16905218       6.63946573
C       -5.36337551      -1.02126990       5.94664791
H       -0.61767968      -0.34905263       2.63858454
H       -2.03487904       1.07689058       4.07285626
H       -2.74673695       3.71471932       0.72722903
H       -1.29491583       2.30776152      -0.69180328
H       -3.38724015       4.06873400       6.11042816
H       -4.83988540       4.41639341       6.99767480
H       -3.67075996       6.40896481       6.52877699
H       -3.68429197       6.18477179       4.80169133
H       -6.29413781       6.29009883       6.39135570
H       -5.43020438       7.76245776       6.00769967
H       -5.72533713       7.56440054       3.69255493
H       -7.26374202       7.12934536       4.40399064
H       -5.29767150       5.42003424       2.90558019
H       -7.01430358       5.56109702       2.74529584
H       -6.89586215       3.49278032       3.66097628
H       -7.22082689       4.45391692       5.07295935
H       -7.83002188       1.09771011       6.97755654
H       -8.52966953      -0.93113838       8.19607279
H       -5.17034171      -3.07826664       6.55516820
H       -4.45107495      -1.06388396       5.35831666
C       -7.30461609      -3.31820930       8.15714064
C       -7.64180759      -4.30794382       8.75810941
Br      -8.18701772      -5.90826084       9.72982510
C        0.88149275      -0.88149275       0.88149275
C        1.28746326      -0.42150157       2.13527400
C        2.10186552      -1.22231271       2.94172715
C        2.53671766      -2.46733977       2.46764658
C        2.09218299      -2.93764481       1.22507083
C        1.26717451      -2.14162115       0.42787856
C        3.40721482      -3.35719389       3.27602999
O        3.05194649      -4.52877087       3.34785344
N        4.53718433      -2.83049681       3.91386826
C        5.26757986      -1.67407968       3.63819096
S        5.44895650      -0.76651741       2.26780872
C        6.14125250      -1.49759053       4.83614764
N        6.22804974      -2.59200201       5.53013324
C        5.37184083      -3.62306816       4.83443863
C        4.58537722      -4.30969839       5.98272652
C        4.25253366      -5.80273804       5.90034220
C        5.47589119      -6.70539493       5.81312685
C        5.92264777      -6.99648174       4.38608887
C        5.95313712      -5.80148481       3.44076628
C        6.42210879      -4.50320372       4.08318586
C        6.76821972      -0.24393004       5.30154135
C        7.98508855      -0.32218265       5.99366853
C        8.58676375       0.83620726       6.49218431
C        7.96607400       2.07010109       6.30915571
C        6.74530039       2.15571789       5.64200322
C        6.14031341       0.99686965       5.14530976
H        0.97542508       0.55859693       2.49038344
H        2.39378073      -0.86534099       3.92550416
H        2.38902717      -3.92409211       0.87556601
H        0.93632959      -2.51289276      -0.53834828
H        3.65037460      -3.75878765       6.15724006
H        5.15469706      -4.18419349       6.91506305
H        3.72371124      -6.05554978       6.82924073
H        3.54721877      -6.02671864       5.09681767
H        6.30666183      -6.27942811       6.38950240
H        5.24461524      -7.66631544       6.28943112
H        5.26986441      -7.76312846       3.94929974
H        6.92327504      -7.44675431       4.42704867
H        4.98697627      -5.68227289       2.95403678
H        6.64426577      -6.05233491       2.62409576
H        6.86945011      -3.89702142       3.28314721
H        7.25927201      -4.72937419       4.75905697
H        8.46694441      -1.28536063       6.15298348
H        9.53211450       0.76280821       7.02529764
H        6.25253169       3.11639633       5.51110791
H        5.17230299       1.08732014       4.66052480
C        8.58264025       3.26459988       6.82550706
C        9.09901448       4.26499261       7.25795131
Br       9.93394794       5.88254305       7.95717710
