182
Properties=species:S:1:pos:R:3 pbc="F F F"
C        8.32931841       3.55874427      -5.67186743
C        7.47540945       4.82569494      -5.59624872
C        5.95210069       4.59728866      -5.79052972
C        5.65974389       3.86947868      -7.12961387
N        5.44975370       3.74079420      -4.70160825
C        4.25246542       4.23950023      -4.32418066
C        3.39691543       3.42486950      -3.43905676
C        3.51597506       2.02137172      -3.45299027
C        2.72469457       1.20658964      -2.63894083
C        1.79253546       1.79253546      -1.79253546
C        1.66189585       3.17770286      -1.74201576
C        2.46971173       3.98627346      -2.55350070
C        3.94230040       5.51548629      -5.04503932
S        2.47297890       6.31203685      -5.16684549
N        5.16801498       5.83894067      -5.70945722
C        5.47611527       6.91363497      -6.56557920
O        6.15763414       6.81558929      -7.59015238
C        4.99170739       8.28778706      -6.25741512
C        4.75905785       9.15804692      -7.33681239
C        4.34408374      10.47294766      -7.11724948
C        4.16375195      10.92352613      -5.81228973
Br       3.57778416      12.69690033      -5.51140522
C        4.42078269      10.07930874      -4.72884499
C        4.85305051       8.76715798      -4.95039489
H        9.38416465       3.80917630      -5.52003815
H        8.24840986       3.07581750      -6.65051952
H        8.04663645       2.83293807      -4.90344354
H        7.85841517       5.51849262      -6.35375711
H        7.65643510       5.30834915      -4.62658970
H        4.58377051       3.84600082      -7.34658661
H        6.00007824       2.82774712      -7.11370924
H        6.14662280       4.36415867      -7.97554113
H        4.24596079       1.55775741      -4.11450788
H        2.85234978       0.13034270      -2.68357497
H        0.94195238       3.64495641      -1.07800636
H        2.37160765       5.06455404      -2.47618154
H        4.90698752       8.80510567      -8.35503686
H        4.16630598      11.12502440      -7.96681201
H        4.28092450      10.43153329      -3.70934354
H        5.06704198       8.12087354      -4.10201544
C       -7.54449685      -6.89694950      -3.11848376
C       -6.70399683      -6.80039985      -4.39295643
C       -6.22283287      -5.36792520      -4.74916101
C       -7.41843853      -4.38434617      -4.85605174
N       -5.33824140      -4.87567549      -3.67823926
C       -4.31602632      -4.22496406      -4.27515593
C       -3.42362607      -3.39736229      -3.43985334
C       -3.91056186      -2.83705253      -2.24272266
C       -3.10736129      -2.04160996      -1.42125378
C       -1.79253546      -1.79253546      -1.79253546
C       -1.27522777      -2.34559263      -2.96079408
C       -2.08587141      -3.15266351      -3.77095097
C       -4.38952164      -4.34694086      -5.76636351
S       -3.56670335      -3.45957561      -6.92558229
N       -5.41795755      -5.31930464      -5.97915068
C       -5.95286361      -5.82138985      -7.18107598
O       -7.15303254      -6.03636639      -7.37397687
C       -5.05927426      -6.15194533      -8.32568997
C       -5.58868722      -6.04178672      -9.62344322
C       -4.81897026      -6.37596638     -10.73934424
C       -3.51400186      -6.82652943     -10.55903652
Br      -2.45965829      -7.25676497     -12.06966646
C       -2.98481417      -6.97034723      -9.27377501
C       -3.76343592      -6.65124942      -8.15591804
H       -7.83569969      -7.93714384      -2.94053557
H       -8.46561741      -6.31146529      -3.19766419
H       -6.99009696      -6.55266887      -2.24025224
H       -7.30602116      -7.21602700      -5.20861674
H       -5.83718202      -7.46638723      -4.28780469
H       -7.10370930      -3.41304045      -5.25960819
H       -7.87564835      -4.18600256      -3.87988368
H       -8.20179368      -4.76748323      -5.51704569
H       -4.94054728      -3.03027995      -1.94739885
H       -3.52598599      -1.63204978      -0.50823168
H       -0.24676846      -2.16316686      -3.25497982
H       -1.65323321      -3.59754172      -4.66156830
H       -6.61069881      -5.69559647      -9.76083477
H       -5.24797980      -6.27835278     -11.73180982
H       -1.96572240      -7.32330209      -9.13277684
H       -3.35058509      -6.78135132      -7.15799455
C       -3.84731279       8.49833995       5.21427738
C       -4.65454370       7.37516204       5.86764736
C       -5.16686915       6.28571772       4.88733221
C       -6.00608186       6.91120389       3.74155069
N       -4.01174405       5.60845557       4.27195654
C       -4.30518148       4.29093651       4.22002833
C       -3.44502220       3.40871935       3.40710015
C       -2.74447890       3.93951637       2.30634179
C       -1.92316234       3.14440847       1.50265422
C       -1.79253546       1.79253546       1.79253546
C       -2.45768979       1.24016683       2.88375785
C       -3.26888555       2.04952033       3.69108001
C       -5.60645170       3.99558104       4.90079327
S       -6.53635869       2.60436961       4.81113295
N       -5.93623050       5.22499999       5.55518238
C       -7.06402381       5.56420164       6.32710399
O       -7.65218520       6.64764854       6.26354206
C       -7.61948629       4.60026752       7.31715575
C       -8.99660869       4.66449959       7.59280888
C       -9.57529576       3.81830738       8.54067773
C       -8.77418205       2.90482930       9.22055645
Br      -9.55871258       1.73967193      10.48770520
C       -7.39886873       2.85078435       8.97928334
C       -6.81788782       3.71131598       8.04139958
H       -3.52275412       9.21640027       5.97422472
H       -4.44391344       9.04973664       4.48109682
H       -2.95190426       8.11631781       4.71479600
H       -5.49461762       7.84443101       6.39161626
H       -4.03480240       6.91048806       6.64608349
H       -6.49990074       6.13822368       3.13823351
H       -5.38801813       7.49969070       3.05382576
H       -6.79190218       7.56861071       4.12580971
H       -2.84340620       4.99899629       2.07582359
H       -1.40283378       3.59767849       0.66575517
H       -2.35541679       0.18663793       3.12286043
H       -3.75434812       1.60418845       4.55380666
H       -9.61884447       5.38361396       7.06467163
H      -10.64173640       3.88323254       8.73317345
H       -6.77278690       2.13790852       9.51110591
H       -5.74421193       3.67497397       7.87074506
C        3.20030639      -6.51991476       7.83970897
C        4.54928089      -6.08006422       7.26800800
C        4.60926518      -6.01255846       5.71809544
C        4.20819981      -7.36961683       5.08101981
N        3.65148907      -4.99893911       5.24172798
C        4.25366745      -4.32398191       4.23849695
C        3.43206625      -3.43324481       3.39553063
C        2.05669202      -3.69427281       3.23937222
C        1.23828788      -2.88470809       2.44722907
C        1.79253546      -1.79253546       1.79253546
C        3.14499685      -1.49679507       1.93982255
C        3.95424729      -2.30804282       2.74719577
C        5.67711370      -4.75819972       4.06751260
S        6.70700304      -4.46677834       2.77807988
N        5.92151860      -5.58487051       5.21002376
C        7.07701873      -6.30088067       5.57743004
O        7.06949992      -7.43938156       6.05449432
C        8.42603228      -5.68957281       5.42130448
C        9.51298277      -6.55078317       5.19015122
C       10.81050284      -6.04807097       5.07570707
C       11.02535184      -4.67777076       5.19644521
Br      12.77858208      -3.99011573       5.01739190
C        9.95893809      -3.81314858       5.45684974
C        8.66169321      -4.32066167       5.58824850
H        3.24479269      -6.53514164       8.93344478
H        2.93336886      -7.52932548       7.51205255
H        2.39538161      -5.83784018       7.54979628
H        5.30408850      -6.77609769       7.65047871
H        4.80165082      -5.09860891       7.69111422
H        4.39934767      -7.37707967       3.99993059
H        3.14196897      -7.58627821       5.21328742
H        4.77150308      -8.20290785       5.51191168
H        1.61779983      -4.54905646       3.75136979
H        0.18429832      -3.12471917       2.35724996
H        3.58532714      -0.64094228       1.43864573
H        4.99920541      -2.04172609       2.87141173
H        9.34286197      -7.62159513       5.10267296
H       11.63331937      -6.73219203       4.89263100
H       10.12682775      -2.74276311       5.55221046
H        7.83891443      -3.64370514       5.80731138
C       -0.00445707       0.01189536      -1.78238275
H       -0.66409135       0.67374010      -2.43557963
H        0.65740317      -0.63156657      -2.45157240
C       -0.90989263      -0.90692880      -0.91072765
C        0.90977584       0.90977584      -0.90977584
C       -0.00465871       1.77757030       0.00794375
H       -0.66225468       2.44313916      -0.64384735
H        0.64322798       2.43503045       0.67728295
C       -1.78241447       0.00034974      -0.00472694
H       -2.45427497      -0.65498947       0.64260836
H       -2.43311707       0.67328779      -0.65473579
C       -0.91132561       0.90220522       0.91563759
C       -0.01476271      -0.02253852       1.78660255
H       -0.67934791      -0.69751639       2.42135241
H        0.63392994       0.61504881       2.47327442
C        0.01484550      -1.77751727      -0.01636693
H        0.67870853      -2.42144646      -0.68295456
H       -0.62264859      -2.45592969       0.64226336
C        1.78714474       0.01002794       0.00389507
H        2.44202412       0.67113390       0.66197326
H        2.45385902      -0.65136977      -0.64189061
C        0.91606151      -0.90478549       0.90901405
