166
Properties=species:S:1:pos:R:3 pbc="F F F"
C        1.79181060       1.79181060      -1.79181060
C        1.44481874       3.12581592      -2.00063328
C        2.25715751       3.93388772      -2.79622734
C        3.41103401       3.40567129      -3.37207961
O        4.16895135       4.26241746      -4.12421083
C        5.48772077       3.79171391      -4.48517631
C        5.95455942       4.63553535      -5.69351011
C        5.38803532       2.35394780      -5.01230380
C        5.01428676       1.53190330      -3.80758779
H        4.89055228       0.48151718      -4.09399594
N        6.10491050       1.61261476      -2.87910617
C        6.70767874       2.78816937      -2.53139702
O        7.43088588       2.75638116      -1.53915787
N        6.41803840       3.90489266      -3.32357936
C        6.87844904       5.20360724      -2.88503663
C        8.15100069       5.35480502      -2.30886392
C        8.61275738       6.59946631      -1.86512708
C        7.80855096       7.72626084      -1.99038836
C        6.54699861       7.59714806      -2.55866738
Br       5.43674762       9.12039357      -2.72509229
C        6.08367241       6.35378125      -3.00151611
C        3.75190862       2.06141034      -3.18468223
C        2.93899813       1.25455038      -2.37734877
H        0.55380513       3.54729019      -1.54298877
H        1.99911900       4.97800588      -2.95254185
H        5.89026701       5.71185030      -5.51602644
H        5.31139827       4.45252928      -6.56322950
H        6.98665568       4.39561140      -5.97195380
H        4.61865449       2.26678778      -5.79079015
H        6.34276619       2.01387686      -5.43423483
H        6.24111651       0.87930247      -2.19511219
H        8.82246488       4.50448627      -2.20907572
H        9.60088141       6.67954835      -1.41920336
H        8.16840780       8.68898432      -1.63929442
H        5.07554036       6.30225885      -3.39744199
H        3.20515860       0.21535142      -2.20112734
C       -1.79181060      -1.79181060      -1.79181060
C       -2.96550574      -1.27100937      -2.33475283
C       -3.76418024      -2.07315953      -3.14993280
C       -3.38240962      -3.38581356      -3.42056173
O       -4.20513796      -4.10684854      -4.24359315
C       -3.67099676      -5.35683844      -4.73677578
C       -4.87326913      -6.21231197      -5.19802378
C       -3.04449540      -6.13673161      -3.57305990
C       -1.82866996      -5.33604315      -3.18906475
H       -1.32479665      -5.80484148      -2.33642727
N       -0.92821443      -5.36287912      -4.30553788
C       -1.32033213      -5.11623986      -5.59067314
O       -0.42332934      -4.90137560      -6.40171996
N       -2.69731729      -5.10877716      -5.84041597
C       -3.16408425      -4.66718467      -7.13582398
C       -2.47724149      -5.03112720      -8.30630095
C       -2.90276866      -4.60477324      -9.56980887
C       -4.03146576      -3.80262959      -9.69110482
C       -4.72491282      -3.43290209      -8.54499914
Br      -6.25655168      -2.33175122      -8.69393058
C       -4.30023721      -3.85720631      -7.28152625
C       -2.21733868      -3.92096716      -2.85969535
C       -1.41218843      -3.10991034      -2.04879851
H       -3.26142987      -0.24387347      -2.13878075
H       -4.67375905      -1.66925256      -3.58665511
H       -5.52730081      -5.69017722      -5.90066572
H       -5.51641018      -6.46486502      -4.34588185
H       -4.54169672      -7.14504236      -5.66748181
H       -3.73772803      -6.21345767      -2.72504672
H       -2.76097452      -7.15277443      -3.87712892
H        0.06277348      -5.21971151      -4.15859314
H       -1.60064237      -5.67409803      -8.26128647
H       -2.34450882      -4.90080276     -10.45432155
H       -4.35467390      -3.46911966     -10.67289299
H       -4.85298229      -3.50422510      -6.41803381
H       -0.49059013      -3.50357424      -1.62747300
C       -1.79181060       1.79181060       1.79181060
C       -2.87746475       1.23092046       2.46288272
C       -3.67520277       2.03435903       3.27771078
C       -3.37987783       3.38881878       3.42008830
O       -4.19452042       4.11047343       4.25058580
C       -3.72640532       5.43147222       4.60673344
C       -4.95559643       6.23021953       5.09778892
C       -3.25087050       6.16053102       3.34288540
C       -2.00687667       5.42336871       2.92353249
H       -1.60574017       5.85881568       2.00150955
N       -1.03183481       5.60470016       3.96009646
C       -1.30772524       5.43261153       5.28690836
O       -0.33937996       5.34918694       6.03785800
N       -2.65771358       5.34387619       5.64492065
C       -2.99160338       4.97330887       7.00218065
C       -2.25168729       5.47836781       8.08461454
C       -2.54812973       5.12344879       9.40577225
C       -3.59770476       4.25273527       9.67476014
C       -4.34193806       3.74337270       8.61750329
Br      -5.76635641       2.54800450       8.96787257
C       -4.04617709       4.09619424       7.29659844
C       -2.30525165       3.96192266       2.73082688
C       -1.50005506       3.15044478       1.92039745
H       -3.10460295       0.17253037       2.36695077
H       -4.51535662       1.60065149       3.81365861
H       -5.51279755       5.71882816       5.88651803
H       -5.67757312       6.36649600       4.28308794
H       -4.66544966       7.21906020       5.46971103
H       -4.00840047       6.11865924       2.54917272
H       -3.02724520       7.21555342       3.54807926
H       -0.04609007       5.52349281       3.74594829
H       -1.43451075       6.17837651       7.92313961
H       -1.95165826       5.52887526      10.21909960
H       -3.82047739       3.97529209      10.70091707
H       -4.63110665       3.63622136       6.50791318
H       -0.64600924       3.57607275       1.39955538
C        1.79181060      -1.79181060       1.79181060
C        1.72725337      -3.17868328       1.66533129
C        2.54170915      -3.98310752       2.46245590
C        3.41700465      -3.39698350       3.37479676
O        4.19863548      -4.24802492       4.10891926
C        5.28440967      -3.63715481       4.84304650
C        5.70058454      -4.63416726       5.94885307
C        4.76229229      -2.40229607       5.58969855
C        4.43940379      -1.40972008       4.50465399
H        4.02754992      -0.49436679       4.94414869
N        5.67179379      -1.07255314       3.85228450
C        6.58146443      -2.00495038       3.44083032
O        7.44872466      -1.61356440       2.66413585
N        6.41411896      -3.30723117       3.92516028
C        7.23274617      -4.36282897       3.37151777
C        8.59004103      -4.14012470       3.08450391
C        9.39852965      -5.14262539       2.53619573
C        8.86498298      -6.39682296       2.26339424
C        7.52471915      -6.63679219       2.54130272
Br       6.78191744      -8.33586775       2.16444830
C        6.71519128      -5.63561521       3.08816329
C        3.46940614      -2.00634924       3.52224581
C        2.65685125      -1.20049902       2.71354700
H        1.05686966      -3.64129794       0.94591649
H        2.50544788      -5.06446678       2.35975206
H        5.91855281      -5.63400806       5.56558287
H        4.88325244      -4.77741027       6.66649433
H        6.58051639      -4.27792502       6.49577947
H        3.86315516      -2.63956191       6.17351536
H        5.51882191      -1.99751906       6.27453690
H        5.76035746      -0.18984041       3.36533329
H        9.05536673      -3.18052186       3.30013828
H       10.44363322      -4.93436633       2.32163358
H        9.49436612      -7.16993768       1.83238276
H        5.66675034      -5.86341050       3.24508036
H        2.70568083      -0.11777875       2.79817778
C       -0.00445707       0.01189536      -1.78238275
H       -0.66409135       0.67374010      -2.43557963
H        0.65740317      -0.63156657      -2.45157240
C       -0.90989263      -0.90692880      -0.91072765
C        0.90977584       0.90977584      -0.90977584
C       -0.00465871       1.77757030       0.00794375
H       -0.66225468       2.44313916      -0.64384735
H        0.64322798       2.43503045       0.67728295
C       -1.78241447       0.00034974      -0.00472694
H       -2.45427497      -0.65498947       0.64260836
H       -2.43311707       0.67328779      -0.65473579
C       -0.91132561       0.90220522       0.91563759
C       -0.01476271      -0.02253852       1.78660255
H       -0.67934791      -0.69751639       2.42135241
H        0.63392994       0.61504881       2.47327442
C        0.01484550      -1.77751727      -0.01636693
H        0.67870853      -2.42144646      -0.68295456
H       -0.62264859      -2.45592969       0.64226336
C        1.78714474       0.01002794       0.00389507
H        2.44202412       0.67113390       0.66197326
H        2.45385902      -0.65136977      -0.64189061
C        0.91606151      -0.90478549       0.90901405
