169
Properties=species:S:1:pos:R:3 pbc="F F F"
C        0.00000000       0.00000000       0.00000000
C        0.88178026       0.88178026      -0.88178026
C        1.53151831       0.32881914      -1.98267206
C        2.30895148       1.14346280      -2.80909410
C        2.44512497       2.50551519      -2.52872281
C        1.82563567       3.04196070      -1.39610212
C        1.02618824       2.23535346      -0.58286157
N        3.20037417       3.37273915      -3.33974988
C        3.33383315       3.24990347      -4.70860881
O        2.76476721       2.39251007      -5.39246371
C        4.28239334       4.25549465      -5.37768923
H        3.78316994       4.57062999      -6.30304128
N        4.63145384       5.50185930      -4.65166351
S        3.42624196       6.61936626      -4.30760316
O        2.50979301       5.98729267      -3.38468718
O        4.09619099       7.85366931      -3.97365990
C        2.47908431       6.95277647      -5.76440317
C        1.13697795       6.78626195      -6.05501579
C        0.81915405       7.18172048      -7.38822452
C        1.93495499       7.63101706      -8.04789365
S        3.33961254       7.58823929      -7.10202009
C        5.55336848       3.51871707      -5.79996189
C        6.63999915       3.37442940      -4.92188711
C        7.77122317       2.65243958      -5.30654467
C        7.82524858       2.05479285      -6.56406035
C        6.74943372       2.17680759      -7.43999659
C        5.61962397       2.90345964      -7.06149537
H        1.43689634      -0.72885165      -2.21376991
H        2.81488276       0.69380067      -3.65970921
H        1.91521438       4.10079028      -1.16370090
H        0.51438826       2.67395730       0.26891212
H        3.35431067       4.30854709      -2.97145838
H        5.43790500       5.97968670      -5.06051135
H        0.42199342       6.39616993      -5.33823893
H       -0.17209694       7.13422091      -7.82400257
H        6.60851805       3.80982015      -3.92468437
H        8.60620865       2.54374426      -4.61867378
H        8.70094257       1.48062643      -6.85634467
H        6.78283231       1.69232417      -8.41264609
H        4.77808424       2.95965909      -7.75030900
C        1.92038082       8.09152819      -9.41219461
C        1.90817495       8.47720627     -10.55479665
Br       1.88843909       9.10081510     -12.40228752
C       -0.88178026      -0.88178026      -0.88178026
C       -0.88044266      -0.69991334      -2.26265351
C       -1.65991971      -1.53036225      -3.07122641
C       -2.44726541      -2.53293995      -2.49915762
C       -2.47640122      -2.67824990      -1.10904736
C       -1.67781621      -1.86670849      -0.29987856
N       -3.23501549      -3.40800071      -3.26984700
C       -2.90214759      -3.85809563      -4.53210221
O       -1.84783111      -3.58590284      -5.11600704
C       -3.95579149      -4.73421351      -5.22557221
H       -3.39995668      -5.54802893      -5.70885559
N       -5.00294952      -5.38358973      -4.39843740
S       -4.55698318      -6.53540598      -3.26082221
O       -3.76566591      -5.85902627      -2.25708068
O       -5.76023009      -7.25217399      -2.91111613
C       -3.47369643      -7.72400248      -3.99856504
C       -2.17171776      -8.09367525      -3.71286268
C       -1.68835193      -9.10073086      -4.60001626
C       -2.64639021      -9.44957370      -5.51790179
S       -4.09948021      -8.59912245      -5.33126926
C       -4.60047425      -3.92255579      -6.34901741
C       -5.71845357      -3.10624458      -6.11161751
C       -6.26100711      -2.33109497      -7.13810534
C       -5.68649118      -2.35024934      -8.40736126
C       -4.56870912      -3.14350121      -8.65402757
C       -4.02761426      -3.92489464      -7.63207009
H       -0.27469694       0.07601229      -2.72312996
H       -1.65250611      -1.36957781      -4.14630872
H       -3.07871681      -3.45605036      -0.64493839
H       -1.67575715      -2.01923380       0.77555752
H       -3.87804228      -4.00332203      -2.75295182
H       -5.78127454      -5.73702303      -4.95980548
H       -1.59808427      -7.65539028      -2.90292772
H       -0.69587367      -9.53409093      -4.55616194
H       -6.16703779      -3.05487354      -5.12111124
H       -7.12480469      -1.69999010      -6.94383190
H       -6.10144776      -1.73478211      -9.20168379
H       -4.10754171      -3.14174955      -9.63851131
H       -3.13519179      -4.51345835      -7.83940219
C       -2.44127573     -10.43846936      -6.54435852
C       -2.26949236     -11.26666948      -7.40401603
Br      -1.99173318     -12.60579903      -8.79400952
C       -0.88178026       0.88178026       0.88178026
C       -2.26727110       0.75136682       0.82437159
C       -3.07146368       1.53300614       1.65703855
C       -2.49177316       2.45065560       2.53693421
C       -1.10257795       2.60616177       2.55495877
C       -0.29454596       1.80728775       1.74256956
N       -3.25545021       3.24757840       3.40983458
C       -4.44199713       2.85406184       3.99628647
O       -4.94994608       1.73549872       3.86429619
C       -5.15262195       3.92133450       4.84162076
H       -5.51631535       3.40256838       5.73795747
N       -4.37175560       5.08627661       5.32694444
S       -3.10859851       4.83918938       6.40542348
O       -2.09701945       4.07547662       5.70927679
O       -2.81005428       6.12604980       6.98741612
C       -3.64725893       3.80942650       7.73957851
C       -3.21744609       2.57328748       8.18752213
C       -3.97270557       2.11065769       9.30573579
C       -4.94068639       3.01770840       9.65547090
S       -4.95439413       4.39963274       8.67584506
C       -6.39160820       4.39714158       4.08329767
C       -6.32227688       5.45360523       3.16043355
C       -7.45293446       5.83921076       2.43806220
C       -8.66013226       5.16685648       2.61711305
C       -8.74056464       4.10777689       3.51789637
C       -7.61402370       3.72380522       4.24675006
H       -2.73383730       0.04329877       0.14467854
H       -4.15114224       1.42343730       1.59381311
H       -0.63194704       3.31128881       3.23646970
H        0.78565247       1.90674658       1.79833932
H       -2.75096447       3.98117707       3.90217460
H       -4.96944955       5.84448614       5.66416735
H       -2.39818019       2.03102873       7.72719336
H       -3.80533189       1.16765137       9.81314328
H       -5.38319879       5.97529436       2.98452942
H       -7.38862919       6.65633097       1.72366652
H       -9.53590707       5.45900553       2.04300107
H       -9.67688610       3.56935680       3.64155967
H       -7.69221946       2.87341283       4.92242004
C       -5.86049953       2.81828305      10.74532104
C       -6.63084304       2.65126431      11.65807052
Br      -7.87642333       2.38120914      13.13390925
C        0.88178026      -0.88178026       0.88178026
C        1.45975911      -2.03240489       0.35084551
C        2.29482635      -2.81888354       1.14779848
C        2.54226370      -2.46140066       2.47569861
C        1.92174024      -1.32949670       3.01246155
C        1.10735885      -0.52660615       2.21043827
N        3.39027334      -3.20813995       3.31444990
C        4.51135756      -3.89252366       2.88846421
O        4.93285164      -3.88986937       1.72701998
C        5.23612087      -4.71670685       3.96274949
H        6.30849565      -4.55286030       3.79548525
N        4.98860744      -4.40413764       5.39223157
S        5.44709303      -2.90704913       5.99906922
O        4.63582616      -1.91123655       5.33471015
O        5.45332785      -3.03309405       7.43709830
C        7.11547743      -2.55114359       5.52964293
C        7.66904420      -1.52795695       4.78125455
C        9.08276548      -1.66111556       4.64521802
C        9.53715921      -2.77917400       5.29753249
S        8.30824740      -3.65849984       6.06312468
C        4.97715993      -6.19930414       3.69558338
C        3.85429061      -6.85252682       4.22949823
C        3.60574451      -8.19343625       3.93102667
C        4.46515050      -8.89278163       3.08616965
C        5.57453064      -8.25426503       2.53744223
C        5.82993192      -6.91574112       2.83890595
H        1.27639278      -2.32500716      -0.67958533
H        2.73161454      -3.71741839       0.71935972
H        2.10577375      -1.03163343       4.04229838
H        0.66682503       0.37455867       2.62716707
H        3.38932409      -2.94719228       4.29779977
H        5.31691175      -5.14436591       6.01682539
H        7.07915424      -0.72448310       4.35276494
H        9.71572156      -0.97123433       4.09917066
H        3.15469049      -6.31836502       4.86996706
H        2.73219136      -8.68967075       4.34676458
H        4.26196872      -9.93278251       2.84316243
H        6.23285707      -8.79380730       1.86113820
H        6.68561840      -6.42828944       2.37414449
C       10.92167276      -3.17383499       5.32859586
C       12.08120286      -3.50436358       5.35461144
Br      13.95606495      -4.03880035       5.39667642
