181
Properties=species:S:1:pos:R:3 pbc="F F F"
C        0.00000000       0.00000000       0.00000000
C        0.87196116       0.87196116      -0.87196116
C        1.96715495       1.55443906      -0.40555018
C        2.59076419       2.29745604      -1.45181741
C        1.94027434       2.14535191      -2.66385549
S        0.59025981       1.09903325      -2.52672580
S        2.26127666       2.80336492      -4.28253895
O        1.03150960       3.44169279      -4.69973940
O        3.48632446       3.56328002      -4.14145121
N        2.58250687       1.49805569      -5.33043280
C        2.56831360       1.83948806      -6.76370256
C        2.30178090       0.56129820      -7.56334642
C        3.05220129      -0.66465792      -7.01191908
C        4.21217438      -0.22962586      -6.10526168
C        3.74791177       0.65539275      -4.94251183
C        2.13022115      -1.64226506      -6.26803957
O        2.34568415      -1.95486492      -5.10198353
N        1.13896859      -2.18928993      -7.06849778
C        0.18278706      -3.14711751      -6.66208502
C       -0.09823856      -3.43460079      -5.32621589
C       -1.01659614      -4.43249884      -4.99178473
C       -1.66563966      -5.15517229      -5.99267494
C       -1.42235328      -4.86917078      -7.34385092
C       -2.08581098      -5.63538549      -8.45393723
C       -0.50576604      -3.84740950      -7.66239432
H        2.30951224       1.53151071       0.62205462
H        3.47259335       2.91666806      -1.33288225
H        3.52628209       2.28908004      -7.05158133
H        1.78258873       2.56442053      -6.99868893
H        1.22093654       0.38171537      -7.59408601
H        2.61167347       0.74026699      -8.60070663
H        3.47133672      -1.23096433      -7.85477630
H        4.75293120      -1.09756239      -5.70830160
H        4.94000689       0.32754211      -6.70971116
H        3.45289966       0.03067032      -4.09302497
H        4.59167213       1.27237052      -4.61604754
H        1.18633101      -1.99480086      -8.06017657
H        0.37498400      -2.89230326      -4.51296050
H       -1.20730459      -4.64025963      -3.94153204
H       -1.77917349      -5.26424246      -9.43757312
H       -3.17411470      -5.53701342      -8.39274610
H       -1.80723953      -6.69327554      -8.40444137
H       -0.30715393      -3.62744164      -8.70897573
C       -2.57358592      -6.19401146      -5.58030768
C       -3.33399092      -7.06403927      -5.23495010
Br      -4.56350147      -8.47080065      -4.67653609
C       -0.87196116      -0.87196116      -0.87196116
C       -1.31129953      -2.11712633      -0.49871833
C       -2.11003575      -2.70636728      -1.52363461
C       -2.23988541      -1.88196495      -2.62763139
S       -1.40448546      -0.40185322      -2.40968018
S       -3.10774085      -2.07353393      -4.16590575
O       -2.12621042      -1.84291492      -5.20381644
O       -3.79124082      -3.34571550      -4.05409937
N       -4.29703068      -0.85606548      -4.25789920
C       -4.89908781      -0.68111572      -5.59130068
C       -5.48066673       0.73254469      -5.67830349
C       -6.18954160       1.17555130      -4.38547215
C       -6.53687983      -0.03851239      -3.51241798
C       -5.30451007      -0.88028036      -3.16102591
C       -5.37414729       2.19758626      -3.57943463
O       -5.05982065       1.98105816      -2.41404028
N       -5.14446141       3.38457732      -4.25829235
C       -4.46465677       4.51224674      -3.74534455
C       -3.65632195       4.47200487      -2.60905947
C       -3.05559017       5.63533938      -2.12243896
C       -3.25725287       6.85452455      -2.76913467
C       -4.04324434       6.91963798      -3.92872050
C       -4.30153411       8.21502234      -4.64622899
C       -4.62718800       5.73299957      -4.41503035
H       -1.07928532      -2.58845029       0.44876728
H       -2.57097564      -3.68582059      -1.46534743
H       -5.67816032      -1.43585666      -5.75292647
H       -4.15798177      -0.79966102      -6.38805541
H       -4.67865347       1.42946650      -5.94755094
H       -6.19611597       0.75355972      -6.51009083
H       -7.12629861       1.68352344      -4.65237352
H       -7.04310464       0.26833001      -2.58889577
H       -7.25562241      -0.66668375      -4.05495401
H       -4.83331743      -0.49056924      -2.25270829
H       -5.63125688      -1.90305867      -2.94577464
H       -5.62013353       3.51065199      -5.14222518
H       -3.46262588       3.54481262      -2.07782798
H       -2.43885051       5.57378476      -1.22890207
H       -4.92791629       8.06581943      -5.53206031
H       -3.36133651       8.66272383      -4.98300529
H       -4.82913205       8.91439894      -3.98919318
H       -5.24469121       5.77959204      -5.30928099
C       -2.63849477       8.02158186      -2.19579738
C       -2.12028486       8.99899236      -1.71562741
Br      -1.28238327      10.57938247      -0.93923316
C       -0.87196116       0.87196116       0.87196116
C       -1.93388348       0.39496563       1.59829508
C       -2.57365218       1.44637362       2.32001185
C       -1.96854648       2.67284962       2.10808564
S       -0.62871862       2.53896059       1.04833965
S       -2.31166866       4.29857001       2.73694185
O       -2.44764387       5.15025003       1.57504788
O       -3.41095355       4.11747368       3.66262846
N       -0.95946574       4.81409950       3.63743012
C       -0.95110805       6.24922572       3.97117045
C        0.49391737       6.67395916       4.24638373
C        1.28715453       5.63145259       5.05516439
C        0.33721921       4.65797649       5.76705292
C       -0.60814745       3.94366785       4.79400104
C        2.30071444       4.85843908       4.19827102
O        2.26600927       3.63487908       4.12393294
N        3.28100629       5.66238418       3.63679856
C        4.36194091       5.21628410       2.84341138
C        4.41253258       3.95372224       2.25218689
C        5.53563948       3.55415478       1.52417445
C        6.62287662       4.41564375       1.37909586
C        6.58824171       5.70044204       1.94012652
C        7.74464904       6.65370774       1.82368206
C        5.43993511       6.09270164       2.65645224
H       -2.24406304      -0.64287578       1.61778107
H       -3.43589991       1.32120907       2.96503467
H       -1.58714256       6.43468858       4.84511232
H       -1.33954298       6.85774410       3.14841111
H        0.98691312       6.89170930       3.29194174
H        0.46866670       7.62076708       4.80054670
H        1.87816685       6.15295448       5.82036106
H        0.89453095       3.91169110       6.34651026
H       -0.25977282       5.22080208       6.49668528
H       -0.13121406       3.03630692       4.40907398
H       -1.50358836       3.63364455       5.34285728
H        3.30866578       6.63019648       3.93017601
H        3.58681105       3.25260630       2.32984599
H        5.54952732       2.56015351       1.08334163
H        7.52984701       7.60812828       2.31587591
H        7.96110794       6.86987404       0.77285187
H        8.63371076       6.23275618       2.30488087
H        5.41155266       7.08512839       3.10080443
C        7.76346091       3.92926803       0.64690317
C        8.71870026       3.52192837       0.03369180
Br      10.26324149       2.86329458      -0.95781913
C        0.87196116      -0.87196116       0.87196116
C        2.23439709      -0.95867580       0.73407130
C        2.78889146      -1.86189220       1.68925399
C        1.82222427      -2.41952082       2.50773666
S        0.25760819      -1.83821863       2.12019203
S        1.91866545      -3.57341788       3.85509720
O        1.00517374      -4.64523064       3.52253741
O        3.33405740      -3.82629579       4.03070250
N        1.35637487      -2.79264065       5.26197984
C        1.08323362      -3.68995169       6.39831891
C        0.09430164      -2.99440643       7.33771745
C        0.38610747      -1.49375955       7.51959543
C        1.82512974      -1.16466545       7.09801500
C        2.12071677      -1.57461776       5.65048181
C       -0.60922219      -0.59806455       6.76715331
O       -0.22535522       0.21943661       5.93759459
N       -1.91932801      -0.73857481       7.19892964
C       -3.03093456      -0.01047043       6.71821871
C       -3.01775973       0.71647601       5.52761228
C       -4.13367313       1.45979921       5.13616210
C       -5.27784350       1.48369997       5.93340646
C       -5.32855234       0.74102193       7.12190113
C       -6.53408723       0.75290230       8.01973029
C       -4.19973513      -0.01678540       7.49216851
H        2.80985641      -0.41353496      -0.00442304
H        3.84276692      -2.09905065       1.78032608
H        2.01758525      -3.92894935       6.92040886
H        0.64083888      -4.63554712       6.06931219
H       -0.92318010      -3.15629108       6.96362694
H        0.14478747      -3.49485838       8.31300123
H        0.27461240      -1.23834195       8.58219434
H        2.04176142      -0.09684591       7.22506308
H        2.51644623      -1.69353572       7.76727822
H        1.84413049      -0.76326784       4.96919663
H        3.19917876      -1.73392821       5.54698321
H       -2.07633523      -1.30725864       8.02078331
H       -2.15361002       0.72060821       4.86985947
H       -4.08957277       2.02405531       4.20759590
H       -6.39107002       0.10792020       8.89314739
H       -7.41610769       0.38713772       7.48486339
H       -6.72107989       1.76600153       8.39100772
H       -4.23087751      -0.58783144       8.41742623
C       -6.37991625       2.29786141       5.49048795
C       -7.30290218       2.97972161       5.11954370
Br      -8.79529236       4.08223189       4.51975821
