190
Properties=species:S:1:pos:R:3 pbc="F F F"
C        1.79116263       1.79116263      -1.79116263
C        1.83383590       3.16478520      -1.57369572
C        2.64052983       3.96842280      -2.38482193
C        3.40241490       3.40717502      -3.41983608
C        3.35119020       2.02677088      -3.62318814
C        2.54815250       1.21883469      -2.80952279
N        4.17505394       4.29366603      -4.19776377
C        4.96005642       3.99346559      -5.29994270
O        5.12803624       2.88165391      -5.78939644
C        5.60049214       5.24424000      -5.90890607
C        6.72255151       4.89839472      -6.90200344
C        6.20602846       4.43306103      -8.26625098
N        5.25442353       5.44498572      -8.77379037
C        4.07016339       5.58630267      -7.90372538
C        4.53222541       6.13800528      -6.55803663
S        4.96878931       5.48489348     -10.44775830
O        4.17594959       6.66733515     -10.72203289
O        6.20758629       5.23709198     -11.14969174
C        3.86633965       4.14320689     -10.85096997
C        2.48992193       4.10853605     -11.00267991
C        2.01046324       2.80652232     -11.32829387
C        3.04592456       1.91074703     -11.41181696
S        4.56094781       2.59808243     -11.09221831
H        1.24548991       3.61958386      -0.78097310
H        2.65570362       5.03927681      -2.19710505
H        3.92876451       1.54125822      -4.40339579
H        2.52447907       0.14613831      -2.98363239
H        4.14778895       5.26424986      -3.90865104
H        6.05794151       5.79272611      -5.07393058
H        7.38897937       4.13523347      -6.48289649
H        7.33235380       5.79947764      -7.05279860
H        7.06497684       4.33780395      -8.93807445
H        5.72214521       3.45474364      -8.19709141
H        3.34694040       6.28564330      -8.33416044
H        3.57010671       4.61848712      -7.78115676
H        4.95998489       7.13690180      -6.71089006
H        3.66111003       6.26526451      -5.90565928
H        1.86670722       4.98896512     -10.89084918
H        0.96969071       2.55734109     -11.49594842
C        2.86628054       0.51976097     -11.73813861
C        2.71582867      -0.64518985     -12.01143298
Br       2.47256073      -2.52881680     -12.45332688
C       -1.79116263      -1.79116263      -1.79116263
C       -1.36310198      -2.14128733      -3.06792753
C       -2.17458169      -2.94664302      -3.87254985
C       -3.41846039      -3.40048909      -3.41047653
C       -3.83230314      -3.04308196      -2.12576412
C       -3.01980584      -2.24082259      -1.31588154
N       -4.17743925      -4.19488766      -4.29415683
C       -5.44776388      -4.71188512      -4.09381571
O       -6.13729707      -4.57247125      -3.08931826
C       -5.95717545      -5.47883200      -5.31763075
C       -7.19664354      -6.33036277      -4.99594335
C       -8.48865439      -5.51395456      -4.90273152
N       -8.62299402      -4.71210668      -6.13809892
C       -7.52373888      -3.73954616      -6.29690640
C       -6.22459293      -4.51744951      -6.48622488
S      -10.17682192      -4.16812688      -6.55649229
O      -10.08925744      -3.59200961      -7.88405058
O      -11.14204436      -5.19992525      -6.25240041
C      -10.56840016      -2.76990118      -5.52221517
C      -10.44707637      -1.40827051      -5.74579102
C      -10.88098641      -0.63258203      -4.63171099
C      -11.31518054      -1.44108837      -3.61221965
S      -11.19426535      -3.09403697      -3.96294624
H       -0.40534102      -1.79399007      -3.44671579
H       -1.81970948      -3.20511239      -4.86726362
H       -4.78089592      -3.37593080      -1.71659180
H       -3.36014653      -1.97601895      -0.31808429
H       -3.73270505      -4.40914212      -5.17884267
H       -5.15103220      -6.16744450      -5.60612150
H       -7.05003863      -6.89157729      -4.06549341
H       -7.31498870      -7.07373674      -5.79590461
H       -9.32413398      -6.21407573      -4.80264553
H       -8.48693851      -4.86341741      -4.02362433
H       -7.68051930      -3.10890932      -7.17731552
H       -7.46547939      -3.08427668      -5.41999453
H       -6.29261481      -5.10405974      -7.41110220
H       -5.40020546      -3.80872956      -6.62309879
H      -10.07001087      -0.99964317      -6.67686746
H      -10.87714950       0.45005772      -4.59588844
C      -11.82403903      -0.93724202      -2.36289908
C      -12.25020801      -0.51527069      -1.31659310
Br     -12.93928722       0.16702125       0.37519517
C       -1.79116263       1.79116263       1.79116263
C       -3.05944688       1.35332527       2.15954468
C       -3.86413519       2.16481209       2.96482728
C       -3.41066878       3.41835199       3.40040523
C       -2.13436246       3.84197933       3.02480742
C       -1.32437058       3.02956437       2.22257502
N       -4.29395768       4.17638433       4.19614172
C       -4.10180572       5.45426010       4.69739889
O       -3.10632814       6.15290880       4.53984965
C       -5.32279693       5.95883694       5.47200434
C       -5.00541877       7.21075176       6.30677914
C       -4.93481388       8.49482117       5.47570541
N       -6.18002265       8.60736342       4.68581356
C       -6.33733705       7.49607719       3.72677720
C       -6.50437075       6.20343588       4.52046069
S       -6.62088136      10.15070459       4.12985513
O       -7.95347909      10.04281581       3.56902273
O       -6.31622610      11.13015781       5.14798611
C       -5.60582357      10.53820280       2.71649014
C       -5.84256536      10.39985929       1.35871324
C       -4.74154124      10.83723356       0.56650464
C       -3.71823120      11.29093316       1.35932420
S       -4.05001752      11.18408592       3.01714511
H       -3.43158242       0.38790367       1.82656079
H       -4.85216410       1.80217141       3.23774998
H       -1.73190152       4.79840181       3.34311520
H       -0.33316960       3.37763986       1.94344031
H       -5.17147498       3.72458761       4.42462726
H       -5.59524767       5.15712505       6.17222548
H       -4.06752254       7.08010962       6.85947717
H       -5.79864728       7.32856605       7.05741671
H       -4.83627625       9.33880501       6.16577398
H       -4.06271520       8.49546451       4.81580054
H       -7.22604684       7.63667936       3.10401794
H       -5.46687532       7.44010909       3.06276618
H       -7.42362850       6.26791567       5.11623257
H       -6.63990301       5.37005868       3.82207213
H       -6.77382794      10.00852643       0.96416714
H       -4.71720831      10.82212762      -0.51635571
C       -2.47989431      11.80761262       0.83667319
C       -1.44278716      12.24033167       0.39895298
Br       0.23412738      12.94000178      -0.30880360
C        1.79116263      -1.79116263       1.79116263
C        2.15151488      -3.06321295       1.35758901
C        2.95682954      -3.86787213       2.16907289
C        3.40044171      -3.41058427       3.41840002
C        3.03284449      -2.13054476       3.83775997
C        2.23060049      -1.32060086       3.02530862
N        4.19558916      -4.29404829       4.17684628
C        4.70376678      -4.09826470       5.45143323
O        4.55419213      -3.09878498       6.14610948
C        5.47500197      -5.32051407       5.95812217
C        6.31715541      -5.00120255       7.20459171
C        5.49249009      -4.92064811       8.49220227
N        4.69729924      -6.16157395       8.61432644
C        3.73230216      -6.31957859       7.50831070
C        4.51908479      -6.49642355       6.21275899
S        4.14656458      -6.59255227      10.16232424
O        3.57897769      -7.92298102      10.06335892
O        5.17072487      -6.28810795      11.13553720
C        2.73982589      -5.56902880      10.55166182
C        1.38031461      -5.80000881      10.42081448
C        0.59535757      -4.69321741      10.85670446
C        1.39510565      -3.67154011      11.30184279
S        3.05082764      -4.01164270      11.18877821
H        1.81223580      -3.43830279       0.39550829
H        3.22339541      -4.85886980       1.80982027
H        3.35754772      -1.72510319       4.79076761
H        1.95776892      -0.32647028       3.37001057
H        4.41781717      -5.17474581       3.72812687
H        6.17014557      -5.60002736       5.15442527
H        6.87362916      -4.06654831       7.06693185
H        7.06460722      -5.79740185       7.32262097
H        6.18698815      -4.82140516       9.33246193
H        4.83669826      -4.04545219       8.49182981
H        3.10604670      -7.20467013       7.65602731
H        3.07212947      -5.44626606       7.45135507
H        5.11083087      -7.41816908       6.27877680
H        3.81614324      -6.63257123       5.38331934
H        0.97955767      -6.73122692      10.03573692
H       -0.48743579      -4.66384685      10.84656916
C        0.88071923      -2.42833838      11.81512251
C        0.44992060      -1.38715694      12.24499427
Br      -0.24664435       0.29634540      12.94006056
C       -0.00445707       0.01189536      -1.78238275
H       -0.66409135       0.67374010      -2.43557963
H        0.65740317      -0.63156657      -2.45157240
C       -0.90989263      -0.90692880      -0.91072765
C        0.90977584       0.90977584      -0.90977584
C       -0.00465871       1.77757030       0.00794375
H       -0.66225468       2.44313916      -0.64384735
H        0.64322798       2.43503045       0.67728295
C       -1.78241447       0.00034974      -0.00472694
H       -2.45427497      -0.65498947       0.64260836
H       -2.43311707       0.67328779      -0.65473579
C       -0.91132561       0.90220522       0.91563759
C       -0.01476271      -0.02253852       1.78660255
H       -0.67934791      -0.69751639       2.42135241
H        0.63392994       0.61504881       2.47327442
C        0.01484550      -1.77751727      -0.01636693
H        0.67870853      -2.42144646      -0.68295456
H       -0.62264859      -2.45592969       0.64226336
C        1.78714474       0.01002794       0.00389507
H        2.44202412       0.67113390       0.66197326
H        2.45385902      -0.65136977      -0.64189061
C        0.91606151      -0.90478549       0.90901405
