181
Properties=species:S:1:pos:R:3 pbc="F F F"
C        0.00000000       0.00000000       0.00000000
C        0.87189055       0.87189055      -0.87189055
C        0.37738471       1.84859176      -1.69874088
C        1.43207159       2.51198960      -2.39194158
C        2.67851023       2.01011133      -2.05902921
S        2.56085038       0.73497425      -0.92296338
S        4.31351506       2.45101866      -2.59195254
O        4.10351191       3.43851058      -3.63224926
O        5.04594775       2.78038755      -1.38957238
N        5.06730736       1.08472552      -3.32870243
C        6.47480413       1.40158225      -3.71308331
C        7.16762556       0.14476597      -4.22464145
C        6.42020875      -0.45686034      -5.41133729
C        4.95569552      -0.72738002      -5.05065172
H        4.90926229      -1.51894804      -4.29052003
C        4.29561831       0.54217512      -4.48938060
C        4.15671750      -1.19109722      -6.26717588
O        3.20097753      -0.53792885      -6.67338103
N        4.59260298      -2.39238065      -6.80325171
C        4.05772623      -3.04709384      -7.93766640
C        3.12903729      -2.46273838      -8.79891429
C        2.61013511      -3.17900818      -9.87995021
C        3.02013536      -4.49010063     -10.11778652
C        3.97600722      -5.09352302      -9.28837490
C        4.43890807      -6.50756085      -9.50350010
C        4.49005419      -4.35490513      -8.20290278
H       -0.67420290       2.08594047      -1.80621768
H        1.29628315       3.32307642      -3.09884811
H        7.02473217       1.77123415      -2.84101815
H        6.48766181       2.17919587      -4.48634032
H        8.19471047       0.38620972      -4.52091338
H        7.22894461      -0.59706251      -3.41882276
H        6.47416464       0.22855085      -6.26706479
H        6.92244721      -1.38016689      -5.72163091
H        4.21287450       1.31228073      -5.26602441
H        3.28341068       0.28514298      -4.15669940
H        5.29960701      -2.90106829      -6.28744235
H        2.78156047      -1.44350077      -8.66522982
H        1.87766539      -2.69902363     -10.52479868
H        5.25066551      -6.77329079      -8.81827979
H        4.82217752      -6.63886173     -10.52054856
H        3.61451226      -7.20635791      -9.32777139
H        5.22171457      -4.82520589      -7.54893223
C        2.41993903      -5.18239466     -11.22868406
C        1.91727461      -5.76219091     -12.15906075
Br       1.10450875      -6.69967240     -13.66340118
C       -0.87189055      -0.87189055      -0.87189055
C       -1.15371345      -0.58702049      -2.18398340
C       -1.99303126      -1.58863460      -2.75433691
C       -2.30885567      -2.58838294      -1.85041217
S       -1.59915035      -2.30013964      -0.31949801
S       -3.28756185      -4.06114081      -2.00778359
O       -3.86407829      -3.97512365      -3.33506982
O       -2.41585711      -5.15592186      -1.64412870
N       -4.59212852      -4.00916931      -0.87943748
C       -5.38557413      -5.27288539      -0.93101017
C       -6.43839230      -5.26892003       0.17027935
C       -7.36315980      -4.06100998       0.04948408
C       -6.55651778      -2.75823792       0.03578848
H       -6.07755732      -2.61749504       1.01421808
C       -5.46883396      -2.80930916      -1.04903091
C       -7.45115911      -1.54946073      -0.23217632
O       -7.27090412      -0.84515379      -1.22037181
N       -8.41264334      -1.33286722       0.74203652
C       -9.38656138      -0.30665353       0.74491612
C       -9.63758480       0.52147345      -0.34910186
C      -10.58681411       1.54283513      -0.26709817
C      -11.30386246       1.74469869       0.91134253
C      -11.09648285       0.90830781       2.01731595
C      -11.84113402       1.09665547       3.30963124
C      -10.13550847      -0.11848413       1.91594076
H       -0.78352435       0.28128083      -2.71571172
H       -2.35004774      -1.58983330      -3.77832664
H       -4.72559057      -6.13344111      -0.77795279
H       -5.86703807      -5.37508759      -1.91107233
H       -7.02862005      -6.19078133       0.11756781
H       -5.94692109      -5.25470954       1.15092576
H       -7.95790172      -4.14231962      -0.86955894
H       -8.07606456      -4.06962469       0.88177802
H       -5.91875847      -2.82315985      -2.04926132
H       -4.85624194      -1.90436934      -0.96464178
H       -8.36230156      -1.90159424       1.57791473
H       -9.11447192       0.40364311      -1.29246071
H      -10.74924356       2.17950260      -1.13369948
H      -11.61610760       0.29717775       4.02327535
H      -12.92244234       1.07921450       3.13936349
H      -11.55708708       2.04617601       3.77498533
H       -9.96211482      -0.76057148       2.77724539
C      -12.24203976       2.83678710       0.93902423
C      -13.02776325       3.75141113       0.96220766
Br     -14.29821168       5.23028085       0.99969331
C       -0.87189055       0.87189055       0.87189055
C       -0.40126979       1.95803029       1.56541727
C       -1.45044542       2.59140251       2.29415484
C       -2.66926260       1.95863963       2.11974854
S       -2.53103874       0.59933700       1.08841225
S       -4.28735947       2.30801521       2.76111157
O       -4.08216937       3.40056091       3.69154147
O       -5.14488773       2.46363584       1.60738410
N       -4.84878705       0.95651008       3.67543817
C       -6.24222343       1.18825544       4.15899082
C       -6.77200513      -0.07009795       4.83512580
C       -5.87603472      -0.49605643       5.99470742
C       -4.42827379      -0.67488396       5.52557739
H       -4.37346445      -1.52594420       4.83331403
C       -3.93630912       0.58882535       4.80203956
C       -3.49124905      -0.95695456       6.69850166
O       -2.56858386      -0.19169920       6.95954505
N       -3.76909981      -2.13645733       7.37083156
C       -3.08355404      -2.63766129       8.50240603
C       -2.14335550      -1.90135820       9.22321590
C       -1.47250209      -2.46986041      10.30843547
C       -1.73959167      -3.78342030      10.69164987
C       -2.70235609      -4.53800837      10.00651138
C       -3.01442932      -5.96022353      10.38064152
C       -3.37080580      -3.94732952       8.91457555
H        0.62951023       2.29138818       1.55607729
H       -1.33067697       3.47221735       2.91531336
H       -6.89468985       1.42931681       3.31297781
H       -6.26134200       2.02947880       4.86237720
H       -7.78844380       0.11060149       5.20278828
H       -6.83248773      -0.88499684       4.10321396
H       -5.92060411       0.25777397       6.79140220
H       -6.26403332      -1.42591722       6.42579512
H       -3.85959353       1.43090975       5.50067636
H       -2.93625549       0.38808445       4.40091312
H       -4.46732695      -2.74754598       6.96620011
H       -1.90291242      -0.87311576       8.97349286
H       -0.73558170      -1.87332702      10.84118576
H       -3.85298955      -6.35448065       9.79714561
H       -3.29761777      -6.02962511      11.43587169
H       -2.14722250      -6.60069610      10.18939934
H       -4.10857175      -4.53501986       8.37188902
C       -0.98776311      -4.31859792      11.79706324
C       -0.35810668      -4.76680917      12.72284694
Br       0.65999450      -5.49152886      14.21976089
C        0.87189055      -0.87189055       0.87189055
C        0.95485129      -0.73538713       2.23447892
C        1.84802288      -1.69803436       2.78994553
C        2.40103940      -2.52191758       1.82469380
S        1.84575996      -2.11590692       0.25712112
S        3.54398903      -3.87570783       1.93678940
O        3.94188892      -3.90187545       3.33050738
O        2.87751517      -5.00704168       1.33135082
N        4.95425285      -3.51730465       1.00917781
C        5.89929508      -4.67317140       1.01700320
C        7.06518418      -4.39553842       0.07631039
C        7.79741609      -3.11382280       0.46344682
C        6.82636836      -1.92991758       0.52268127
H        6.45238868      -1.71621248      -0.48776689
C        5.63449888      -2.25580442       1.43687073
C        7.51137304      -0.67080015       1.05062296
O        7.12160653      -0.13282487       2.08199831
N        8.54361419      -0.21201069       0.24784916
C        9.36341725       0.91350776       0.49838930
C        9.36861274       1.61020466       1.70680512
C       10.17417999       2.73870366       1.87560081
C       10.99220906       3.18155800       0.83717017
C       11.03248153       2.48352868      -0.37809376
C       11.89301025       2.93174281      -1.52642013
C       10.21379378       1.34567737      -0.53006458
H        0.41030196       0.00299838       2.81065166
H        2.07779224      -1.79510217       3.84531326
H        5.38445455      -5.57739741       0.67513251
H        6.27033900      -4.84888725       2.03397174
H        7.76402133      -5.23940689       0.09840535
H        6.69624803      -4.30748932      -0.95303249
H        8.28431557      -3.24729581       1.43816890
H        8.59869065      -2.92525198      -0.26003140
H        5.96019156      -2.35107751       2.47991057
H        4.91970853      -1.42695935       1.37858518
H        8.67014762      -0.66456649      -0.64873304
H        8.75792371       1.30478761       2.55015341
H       10.14508427       3.26725292       2.82560909
H       11.86435324       2.21494882      -2.35374992
H       12.93883007       3.01998838      -1.21497734
H       11.54062533       3.89489969      -1.90979991
H       10.23220701       0.80977939      -1.47698670
C       11.77090319       4.37098278       1.06630802
C       12.42305951       5.36712603       1.25821097
Br      13.47754114       6.97780542       1.56850181
