169
Properties=species:S:1:pos:R:3 pbc="F F F"
C        0.00000000       0.00000000       0.00000000
C        0.88120464       0.88120464      -0.88120464
C        0.72601028       0.85645096      -2.26412370
C        1.54179806       1.65940983      -3.06872814
C        2.52359098       2.48122147      -2.49812858
C        2.65820008       2.50130224      -1.10736265
C        1.83912363       1.70452229      -0.29914032
N        3.32443243       3.23744514      -3.38031332
C        4.42448447       4.01528073      -3.05311167
O        4.86202294       4.19283291      -1.92065391
C        5.07687427       4.68134921      -4.26340668
H        4.31577267       5.30415993      -4.75343471
C        5.61166227       3.65152458      -5.26944800
C        6.38531819       4.33165959      -6.39871735
C        7.48484878       5.24520446      -5.86214320
N        6.87236640       6.24350224      -4.94883350
C        6.21701453       5.58506909      -3.77969255
S        7.93523650       7.51594038      -4.51480908
O        8.75093732       7.05804641      -3.41164447
O        8.52883489       8.05884616      -5.71829141
C        6.94051900       8.82905705      -3.84561621
C        6.93449359       9.46647280      -2.61793446
C        5.91868854      10.46581547      -2.53354710
C        5.20082613      10.53900132      -3.70044981
S        5.71419050       9.43658615      -4.87810819
H       -0.02004624       0.21485979      -2.72553965
H        1.40522921       1.61747195      -4.14619210
H        3.38890716       3.13135640      -0.61027303
H        1.96496251       1.73759926       0.78009878
H        3.08047965       3.17214975      -4.36041399
H        4.79198711       3.06824185      -5.70403452
H        6.26499513       2.93375885      -4.75691439
H        6.82269434       3.57306816      -7.05713616
H        5.68659757       4.92102762      -7.00633590
H        8.24801979       4.66244440      -5.33440211
H        7.95729411       5.74822810      -6.71206454
H        6.96217443       5.00489137      -3.21895702
H        5.80834374       6.34734000      -3.10669061
H        7.62946155       9.21883832      -1.82341652
H        5.73638669      11.08664817      -1.66420091
C        4.11192146      11.45784639      -3.90928075
C        3.19996380      12.22737914      -4.08417666
Br       1.72540540      13.47164850      -4.36696856
C       -0.88120464      -0.88120464      -0.88120464
C       -1.51389455      -0.33741324      -1.99527715
C       -2.32774068      -1.14676586      -2.79542949
C       -2.52336506      -2.49868104      -2.48089492
C       -1.87188729      -3.03023015      -1.36474753
C       -1.05155719      -2.22507356      -0.56615550
N       -3.38229459      -3.23881585      -3.32108044
C       -3.81537434      -4.54264371      -3.13485883
O       -3.48912758      -5.27796403      -2.20841814
C       -4.76426695      -5.02786384      -4.22949936
H       -4.23674402      -4.94669320      -5.18993009
C       -6.05190801      -4.19286087      -4.28786597
C       -7.04714617      -4.78026788      -5.28828108
C       -7.32365341      -6.25633410      -5.01220894
N       -6.03550814      -6.99530605      -5.03388794
C       -5.10406616      -6.50132229      -3.97638772
S       -6.22434466      -8.69866362      -5.04297767
O       -6.41121168      -9.13326375      -3.67615277
O       -7.16299487      -9.05834824      -6.08462935
C       -4.66955316      -9.39908869      -5.54655041
C       -3.79962577     -10.28401284      -4.93526223
C       -2.64378173     -10.54208008      -5.73218930
C       -2.69017511      -9.84005397      -6.91004817
S       -4.07680347      -8.88221236      -7.06986901
H       -1.38569638       0.71209593      -2.24675275
H       -2.81570268      -0.69698759      -3.65620299
H       -1.97256052      -4.07383990      -1.08413616
H       -0.55709853      -2.66272440       0.29735995
H       -3.74149316      -2.74395624      -4.12759400
H       -5.83327166      -3.15765314      -4.57333867
H       -6.51355791      -4.14907320      -3.29303726
H       -7.98493832      -4.21495780      -5.25300253
H       -6.64232092      -4.66918788      -6.30245229
H       -7.81968567      -6.38186029      -4.04332034
H       -7.98991432      -6.63229431      -5.79537812
H       -5.56744307      -6.62966541      -2.98891434
H       -4.17961205      -7.08962881      -3.99313348
H       -3.99180891     -10.71901656      -3.96089092
H       -1.83497726     -11.20479790      -5.44746060
C       -1.66113470      -9.90249146      -7.91542243
C       -0.79931336      -9.95478287      -8.75742337
Br       0.59417886     -10.03933365     -10.11886768
C       -0.88120464       0.88120464       0.88120464
C       -1.53122006       1.98283794       0.33252695
C       -2.33114909       2.79298235       1.14580459
C       -2.47640155       2.51461338       2.51192611
C       -1.82495911       1.39844061       3.04346524
C       -1.02956493       0.58194531       2.23127601
N       -3.27644642       3.39707638       3.26866808
C       -3.45991903       3.39006552       4.64289233
O       -2.96874734       2.58203618       5.42472623
C       -4.37605204       4.50822651       5.13735162
H       -5.34592717       4.39356849       4.63387165
C       -3.80637763       5.90009219       4.82616503
C       -4.66205264       7.00070963       5.45293287
C       -4.86529953       6.77723631       6.94966060
N       -5.47320415       5.43760603       7.15389195
C       -4.58297740       4.35051446       6.64828431
S       -6.03581019       5.17834000       8.75183577
O       -4.91155092       4.75286607       9.55621122
O       -6.86244589       6.30041487       9.14311170
C       -7.13161667       3.77885963       8.70471596
C       -7.11511165       2.55483874       9.34895046
C       -8.21728800       1.73057212       8.97019099
C       -9.01763149       2.36711650       8.05552926
S       -8.47071964       3.91516359       7.64300162
H       -1.41901996       2.22282738      -0.72149414
H       -2.82312132       3.65087662       0.69489532
H       -1.91583167       1.12486585       4.08983907
H       -0.53248503      -0.27968816       2.66966612
H       -3.73632106       4.13130742       2.74541492
H       -3.75280371       6.06705482       3.74440494
H       -2.77807066       5.97500966       5.20258806
H       -4.19227275       7.97602732       5.28459859
H       -5.63857838       7.02311056       4.95227215
H       -3.91149130       6.84929148       7.48408352
H       -5.53414802       7.55854768       7.32489105
H       -3.62172532       4.38588372       7.17841379
H       -5.04081871       3.37481187       6.84674376
H       -6.34295736       2.27283396      10.05592507
H       -8.40067359       0.73347950       9.35308268
C      -10.20608822       1.78039160       7.49256879
C      -11.20142073       1.28900949       7.02108938
Br     -12.81078921       0.49448619       6.25874707
C        0.88120464      -0.88120464       0.88120464
C        1.33872324      -2.10539731       0.40246440
C        2.13916227      -2.91397792       1.21679584
C        2.47657727      -2.51030772       2.51605604
C        2.01714805      -1.27343042       2.97628649
C        1.22199609      -0.45901034       2.16177982
N        3.26258441      -3.39633536       3.28327111
C        3.60961550      -3.26420761       4.61905377
O        3.30543291      -2.32389644       5.34618040
C        4.45340740      -4.42491893       5.14330383
H        5.36238418      -4.48230469       4.52867843
C        3.70460463      -5.76348094       5.06454928
C        4.50651312      -6.88543132       5.72375069
C        4.91098364      -6.52891601       7.15229680
N        5.67906236      -5.25796495       7.12767482
C        4.85616890      -4.13222650       6.59338076
S        6.45420465      -4.89847789       8.61330342
O        5.48691252      -4.25720663       9.47650905
O        7.19684386      -6.06335043       9.04577817
C        7.68001427      -3.65404622       8.28113177
C        7.87233961      -2.37498070       8.77158054
C        9.00292698      -1.73455951       8.18056463
C        9.61465459      -2.55702519       7.26859748
S        8.85939787      -4.06332629       7.10616069
H        1.07556106      -2.44171703      -0.59692489
H        2.47857333      -3.86813686       0.82218306
H        2.26194082      -0.90221937       3.96637640
H        0.87643974       0.49811144       2.54413469
H        3.57487204      -4.23233914       2.80583222
H        3.50379446      -6.03774735       4.02272167
H        2.72694326      -5.67346465       5.55526046
H        3.91811200      -7.80958292       5.72520373
H        5.40770513      -7.07858440       5.12767156
H        4.02614923      -6.42809907       7.79061800
H        5.53248317      -7.34022409       7.54487948
H        3.96740301      -3.99476773       7.22385208
H        5.43645002      -3.20303156       6.62289277
H        7.22547305      -1.92807179       9.51817155
H        9.33679845      -0.73149600       8.41894132
C       10.78279702      -2.18115664       6.51509494
C       11.76111631      -1.86636673       5.88403655
Br      13.34297586      -1.35737808       4.86366852
