182
Properties=species:S:1:pos:R:3 pbc="F F F"
C        1.79110867       1.79110867      -1.79110867
C        1.63591430       1.76635499      -3.17402773
C        2.45170209       2.56931385      -3.97863217
C        3.43349500       3.39112549      -3.40803261
C        3.56810410       3.41120627      -2.01726667
C        2.74902766       2.61442631      -1.20904434
N        4.23433645       4.14734916      -4.29021734
C        5.33438850       4.92518475      -3.96301570
O        5.77192696       5.10273693      -2.83055793
C        5.98677829       5.59125324      -5.17331071
H        5.22567669       6.21406396      -5.66333873
C        6.52156629       4.56142860      -6.17935202
C        7.29522222       5.24156361      -7.30862137
C        8.39475280       6.15510848      -6.77204723
N        7.78227042       7.15340626      -5.85873752
C        7.12691856       6.49497311      -4.68959657
S        8.84514053       8.42584440      -5.42471311
O        9.66084134       7.96795044      -4.32154850
O        9.43873891       8.96875018      -6.62819543
C        7.85042302       9.73896107      -4.75552024
C        7.84439761      10.37637682      -3.52783848
C        6.82859256      11.37571950      -3.44345113
C        6.11073015      11.44890534      -4.61035383
Br       4.69430362      12.64412158      -4.88199716
S        6.62409452      10.34649018      -5.78801222
H        0.88985778       1.12476382      -3.63544368
H        2.31513323       2.52737598      -5.05609612
H        4.29881118       4.04126042      -1.52017705
H        2.87486653       2.64750329      -0.12980524
H        3.99038368       4.08205378      -5.27031802
H        5.70189113       3.97814588      -6.61393854
H        7.17489915       3.84366288      -5.66681842
H        7.73259836       4.48297219      -7.96704018
H        6.59650160       5.83093164      -7.91623993
H        9.15792381       5.57234843      -6.24430613
H        8.86719813       6.65813213      -7.62196856
H        7.87207846       5.91479539      -4.12886104
H        6.71824776       7.25724402      -4.01659463
H        8.53936557      10.12874235      -2.73332054
H        6.64629071      11.99655220      -2.57410493
C       -1.79110867      -1.79110867      -1.79110867
C       -2.34001043      -2.96134159      -1.27494500
C       -3.14017199      -3.77066624      -2.08880988
C       -3.38627820      -3.42229538      -3.42407952
C       -2.83573954      -2.23849185      -3.92234565
C       -2.04053621      -1.42305818      -3.10890393
N       -4.17879610      -4.30699440      -4.18611245
C       -4.44758306      -4.23089279      -5.54411310
O       -4.05425447      -3.34941482      -6.30155253
C       -5.32561704      -5.37302752      -6.05269768
H       -6.26730674      -5.34869381      -5.48707883
C       -4.65707567      -6.74255823      -5.86271302
C       -5.48414041      -7.85569439      -6.50557240
C       -5.79294435      -7.55797485      -7.97098931
N       -6.48985413      -6.24913738      -8.05542269
C       -5.63511635      -5.14022489      -7.53614701
S       -7.16510154      -5.93220206      -9.59839444
O       -6.11998702      -5.39113347     -10.43921979
O       -7.94731123      -7.07871062     -10.00966269
C       -8.33598157      -4.60884769      -9.40007507
C       -8.43139309      -3.35052491      -9.96669492
C       -9.55425526      -2.62011089      -9.47339704
C      -10.25740221      -3.35776965      -8.55481746
Br     -11.79679060      -2.73655071      -7.68708104
S       -9.59607571      -4.89026661      -8.27225459
H       -2.14851995      -3.25523991      -0.24630541
H       -3.55198296      -4.68248124      -1.66414113
H       -3.00747278      -1.91025132      -4.94252456
H       -1.62307584      -0.50793334      -3.52116588
H       -4.56136982      -5.09784038      -3.68354527
H       -4.52654928      -6.96897376      -4.79845251
H       -3.65158523      -6.73110496      -6.30269025
H       -4.94843669      -8.80805119      -6.42612284
H       -6.42459907      -7.96816648      -5.95090761
H       -4.87168647      -7.53904876      -8.56384314
H       -6.43691738      -8.35608285      -8.35429859
H       -4.70832464      -5.08453536      -8.12287490
H       -6.16082374      -4.18497557      -7.64628711
H       -7.72261988      -2.98003471     -10.69877387
H       -9.81925087      -1.61564966      -9.78204731
C       -1.79110867       1.79110867       1.79110867
C       -3.14809476       1.91890785       1.50929441
C       -3.95053638       2.73458970       2.31452203
C       -3.40050357       3.43541572       3.39673381
C       -2.03839137       3.28693845       3.67124722
C       -1.23421675       2.46634751       2.87193406
N       -4.27112082       4.25968607       4.14109606
C       -3.92816625       5.13018955       5.16423315
O       -2.79707464       5.29970522       5.60844197
C       -5.12239788       5.89075222       5.73819214
H       -5.84423406       5.14993198       6.10891333
C       -5.80291769       6.77583516       4.68359407
C       -6.90171292       7.63523671       5.30845757
C       -6.38337525       8.44150402       6.49702924
N       -5.79899051       7.50487309       7.49055061
C       -4.64652608       6.74833888       6.91662328
S       -5.45680637       8.23705307       9.00183859
O       -4.16613340       8.88219276       8.90201411
O       -6.62973621       8.95968643       9.44626189
C       -5.23342503       6.92764604      10.18383326
C       -4.17419484       6.57413128      11.00028680
C       -4.45730567       5.41163508      11.77882244
C       -5.71735900       4.93685451      11.51577581
Br      -6.44910062       3.42550393      12.34581780
S       -6.55287416       5.84712559      10.35859716
H       -3.58956110       1.39467190       0.66583227
H       -5.00588360       2.82275535       2.06996638
H       -1.56268971       3.79117614       4.50638281
H       -0.17716303       2.36891716       3.10609488
H       -5.24539802       4.22864773       3.86870972
H       -6.24209124       6.16556885       3.88631546
H       -5.05824333       7.42365687       4.20348024
H       -7.31599032       8.31282764       4.55379277
H       -7.72031682       6.98346580       5.63989055
H       -5.63268167       9.17028064       6.17161606
H       -7.22664847       8.98363573       6.93701462
H       -3.86741801       7.45275594       6.59556094
H       -4.21416890       6.09499680       7.68292071
H       -3.24323173       7.12914698      11.02904975
H       -3.77003042       4.96142018      12.48549725
C        1.79110867      -1.79110867       1.79110867
C        1.21659974      -2.56283330       2.79686398
C        2.02906434      -3.36259386       3.60798990
C        3.41887032      -3.38671562       3.42706716
C        3.97727626      -2.61367750       2.40562327
C        3.16670552      -1.81785312       1.58793967
N        4.16990633      -4.19630377       4.30569286
C        5.55115223      -4.27897130       4.39246542
O        6.34866727      -3.67121669       3.68533786
C        6.03340850      -5.24127907       5.47665467
H        5.61656353      -6.23309681       5.25341904
C        5.57913309      -4.80565795       6.87755588
C        6.18950962      -5.69693068       7.95896690
C        7.70973507      -5.77356289       7.83861056
N        8.05686481      -6.25898730       6.47856209
C        7.56329687      -5.32566320       5.42252817
S        9.70829652      -6.68285242       6.30454909
O       10.45131499      -5.47374575       6.02527954
O       10.08070231      -7.56392361       7.39105860
C        9.84780323      -7.66690888       4.83019222
C       10.57548767      -7.50868527       3.66443998
C       10.34419380      -8.56780426       2.73576512
C        9.45105416      -9.47922224       3.23971292
Br       8.89836899     -11.00985811       2.31219525
S        8.88650616      -9.08571163       4.78637913
H        0.14247419      -2.54605464       2.96153645
H        1.55706509      -3.95113325       4.39040699
H        5.04456226      -2.60718653       2.20849987
H        3.62612871      -1.22484773       0.80119862
H        3.63240195      -4.74852255       4.96183098
H        4.48726242      -4.84349132       6.96322180
H        5.86795952      -3.76181847       7.05560245
H        5.91513196      -5.31789455       8.94958423
H        5.76608980      -6.70582867       7.87175469
H        8.16167497      -4.79217020       8.02073320
H        8.07850535      -6.47236711       8.59642636
H        8.01303687      -4.33432254       5.56837548
H        7.86672771      -5.69062318       4.43473553
H       11.23871045      -6.66789545       3.49482256
H       10.81119075      -8.64487835       1.76087874
C       -0.00445707       0.01189536      -1.78238275
H       -0.66409135       0.67374010      -2.43557963
H        0.65740317      -0.63156657      -2.45157240
C       -0.90989263      -0.90692880      -0.91072765
C        0.90977584       0.90977584      -0.90977584
C       -0.00465871       1.77757030       0.00794375
H       -0.66225468       2.44313916      -0.64384735
H        0.64322798       2.43503045       0.67728295
C       -1.78241447       0.00034974      -0.00472694
H       -2.45427497      -0.65498947       0.64260836
H       -2.43311707       0.67328779      -0.65473579
C       -0.91132561       0.90220522       0.91563759
C       -0.01476271      -0.02253852       1.78660255
H       -0.67934791      -0.69751639       2.42135241
H        0.63392994       0.61504881       2.47327442
C        0.01484550      -1.77751727      -0.01636693
H        0.67870853      -2.42144646      -0.68295456
H       -0.62264859      -2.45592969       0.64226336
C        1.78714474       0.01002794       0.00389507
H        2.44202412       0.67113390       0.66197326
H        2.45385902      -0.65136977      -0.64189061
C        0.91606151      -0.90478549       0.90901405
