133
Properties=species:S:1:pos:R:3 pbc="F F F"
C        0.00000000       0.00000000       0.00000000
C        0.88129987       0.88129987      -0.88129987
C        2.23448761       1.02531004      -0.58814339
C        3.03928054       1.83251851      -1.39995789
C        2.49387725       2.51194450      -2.49710468
C        1.13375646       2.35390043      -2.77863946
C        0.32868036       1.53769567      -1.97610051
N        3.36502527       3.31404735      -3.26274250
C        3.02037695       4.17125561      -4.29513618
O        1.88473142       4.40929706      -4.69669748
C        4.22216221       4.85924954      -4.92636966
N        5.21125512       3.89742648      -5.50366213
C        4.57850346       2.97201711      -6.48299418
S        6.59515618       4.68535892      -6.14505409
O        7.43283279       3.70363885      -6.79884730
O        6.15322230       5.88146200      -6.82772031
C        7.56959321       5.27142589      -4.77908994
C        8.05795601       6.52292195      -4.44816794
C        8.84737864       6.49768246      -3.25917611
C        8.91632090       5.22943314      -2.74024132
Br       9.88296607       4.79352386      -1.19638967
S        8.03915908       4.08800906      -3.63195107
H        2.67172162       0.51774542       0.26765845
H        4.09221565       1.93247456      -1.14897745
H        0.66394071       2.83998256      -3.62807896
H       -0.72483013       1.42571802      -2.21985668
H        4.35319587       3.25399403      -3.04215374
H        4.69879402       5.46438871      -4.14711934
H        3.84754423       5.53149726      -5.70692174
H        3.91773040       2.27470641      -5.95876004
H        5.32821434       2.35508886      -6.98625432
H        4.00003731       3.52204166      -7.23058166
H        7.87060557       7.40585944      -5.04933673
H        9.34029075       7.36151148      -2.82891260
C       -0.88129987      -0.88129987      -0.88129987
C       -0.56483141      -1.05774438      -2.22536525
C       -1.37427561      -1.86825067      -3.02923066
C       -2.51129090      -2.49220698      -2.49942855
C       -2.81277665      -2.30640479      -1.14711490
C       -1.99856967      -1.50643396      -0.33747291
N       -3.28304519      -3.28579990      -3.37297004
C       -4.50652405      -3.87714825      -3.10309644
O       -5.15026049      -3.77824753      -2.06221795
C       -5.04432951      -4.69513010      -4.26832180
N       -4.13076848      -5.80755558      -4.67401967
C       -3.80266401      -6.70120375      -3.52964699
S       -4.71604209      -6.67356638      -6.03596072
O       -3.84988906      -7.80657206      -6.27885782
O       -6.14617913      -6.82970124      -5.88652423
C       -4.51558158      -5.63804933      -7.46647814
C       -5.40260199      -5.19500244      -8.43144147
C       -4.76070778      -4.40857719      -9.43495223
C       -3.41780088      -4.28673358      -9.18146089
Br      -2.23595652      -3.34715771     -10.28976536
S       -2.92613689      -5.07001972      -7.76296259
H        0.30487687      -0.56952802      -2.65715745
H       -1.10906377      -1.98800709      -4.07659678
H       -3.66914480      -2.78284699      -0.68001044
H       -2.25055092      -1.38301263       0.71281898
H       -2.90081157      -3.45064568      -4.29788640
H       -5.19400640      -4.00783784      -5.10845783
H       -6.02000100      -5.09590504      -3.97005720
H       -3.15710836      -6.17268962      -2.82139886
H       -3.23435675      -7.57516453      -3.86003625
H       -4.70825892      -7.03139001      -3.01301169
H       -6.45738997      -5.44681222      -8.42159954
H       -5.26232518      -3.97586527     -10.29252438
C       -0.88129987       0.88129987       0.88129987
C       -1.95960795       1.56349843       0.32483467
C       -2.76626892       2.36868456       1.13680346
C       -2.49043287       2.50932636       2.50316719
C       -1.40533697       1.81499080       3.04596857
C       -0.60398137       0.99925041       2.23924476
N       -3.34182073       3.34507913       3.25491526
C       -3.17875422       3.73316640       4.57484812
O       -2.23767952       3.44433233       5.30871411
C       -4.30932003       4.61710770       5.08135368
N       -5.64797301       3.95405678       5.01031395
C       -5.65910247       2.64870656       5.72570572
S       -6.92074837       4.98975589       5.51506493
O       -8.15514313       4.23587475       5.54430106
O       -6.46051256       5.73736280       6.66452925
C       -7.16677776       6.20839933       4.24493195
C       -7.17199986       7.59180464       4.26524140
C       -7.46909603       8.14973392       2.98540725
C       -7.66964392       7.16382309       2.05252834
Br      -8.10513998       7.50464694       0.26309267
S       -7.48455722       5.59984390       2.67471809
H       -2.17971175       1.47813935      -0.73604250
H       -3.60030544       2.89442159       0.67894061
H       -1.15909927       1.87110867       4.10179429
H        0.23007526       0.46431882       2.68650101
H       -4.16888480       3.69614441       2.78431444
H       -4.30958647       5.52814386       4.47257176
H       -4.07721793       4.89197095       6.11677435
H       -5.05584609       1.92038606       5.17496469
H       -6.66853170       2.23040855       5.77061727
H       -5.26281921       2.74985480       6.73998662
H       -6.99166870       8.16806690       5.16606613
H       -7.54168770       9.21089274       2.77813440
C        0.88129987      -0.88129987       0.88129987
C        0.83685974      -2.26595786       0.74512344
C        1.64805646      -3.07008478       1.55361570
C        2.49408072      -2.49686041       2.51198529
C        2.52819844      -1.10464957       2.63344834
C        1.72737553      -0.29700477       1.81809624
N        3.27429309      -3.37166403       3.29585800
C        4.06787703      -3.03764066       4.38125105
O        4.19767501      -1.92007124       4.87297971
C        4.80061388      -4.23195407       4.97521346
N        5.70648561      -4.90915132       3.99670681
C        6.68088583      -3.95914099       3.39348793
S        6.46822989      -6.29742568       4.65991363
O        7.42196772      -6.81189052       3.70146070
O        6.84978346      -5.99151747       6.02110368
C        5.24083449      -7.57470182       4.80457273
C        4.81314078      -8.34348089       5.87242422
C        3.81987427      -9.29455918       5.48980376
C        3.53605356      -9.19910679       4.15083501
Br       2.30015807     -10.29934565       3.27337587
S        4.41316428      -7.98485978       3.36109514
H        0.17560956      -2.72885660       0.01734244
H        1.59330195      -4.14885577       1.43150992
H        3.18044346      -0.60708545       3.34447333
H        1.77697069       0.78348756       1.92726144
H        3.26223800      -4.35181917       3.03528648
H        4.04128107      -4.93644586       5.33257514
H        5.37458770      -3.87374734       5.83762819
H        6.15813266      -3.26921769       2.72384649
H        7.41295834      -4.48357551       2.77302367
H        7.20317012      -3.38530732       4.16418318
H        5.21582373      -8.23633054       6.87364746
H        3.35958089     -10.00859308       6.16254086
