141
Properties=species:S:1:pos:R:3 pbc="F F F"
C        0.00000000       0.00000000       0.00000000
C        0.88129987       0.88129987      -0.88129987
C        2.23448761       1.02531004      -0.58814339
C        3.03928054       1.83251851      -1.39995789
C        2.49387725       2.51194450      -2.49710468
C        1.13375646       2.35390043      -2.77863946
C        0.32868036       1.53769567      -1.97610051
N        3.36502527       3.31404735      -3.26274250
C        3.02037695       4.17125561      -4.29513618
O        1.88473142       4.40929706      -4.69669748
C        4.22216221       4.85924954      -4.92636966
N        5.21125512       3.89742648      -5.50366213
C        4.57850346       2.97201711      -6.48299418
S        6.59515618       4.68535892      -6.14505409
O        7.43283279       3.70363885      -6.79884730
O        6.15322230       5.88146200      -6.82772031
C        7.56959321       5.27142589      -4.77908994
C        8.05795601       6.52292195      -4.44816794
C        8.84737864       6.49768246      -3.25917611
C        8.91632090       5.22943314      -2.74024132
S        8.03915908       4.08800906      -3.63195107
H        2.67172162       0.51774542       0.26765845
H        4.09221565       1.93247456      -1.14897745
H        0.66394071       2.83998256      -3.62807896
H       -0.72483013       1.42571802      -2.21985668
H        4.35319587       3.25399403      -3.04215374
H        4.69879402       5.46438871      -4.14711934
H        3.84754423       5.53149726      -5.70692174
H        3.91773040       2.27470641      -5.95876004
H        5.32821434       2.35508886      -6.98625432
H        4.00003731       3.52204166      -7.23058166
H        7.87060557       7.40585944      -5.04933673
H        9.34029075       7.36151148      -2.82891260
C        9.65952161       4.89428628      -1.55325805
C       10.28195220       4.61360079      -0.55915956
Br      11.28836984       4.15975609       1.04821362
C       -0.88129987      -0.88129987      -0.88129987
C       -2.25956195      -0.90146008      -0.68691902
C       -3.06402983      -1.70921293      -1.49851418
C       -2.49507689      -2.51209476      -2.49575478
C       -1.10966221      -2.47756949      -2.67906464
C       -0.30351386      -1.66163219      -1.87733050
N       -3.36850396      -3.30621056      -3.26710060
C       -3.01803618      -4.26588707      -4.20284549
O       -1.87844345      -4.61812605      -4.49415647
C       -4.22097368      -4.91151847      -4.87528925
N       -5.08519165      -3.92843461      -5.59871748
C       -4.31040789      -3.13300295      -6.59010390
S       -6.47637389      -4.66080855      -6.28838675
O       -7.18285002      -3.67518475      -7.07728418
O       -6.08191708      -5.93672506      -6.84376247
C       -7.59231176      -5.06296978      -4.96482751
C       -8.20173719      -6.24478731      -4.58252140
C       -9.07208153      -6.06695366      -3.46520201
C       -9.07794502      -4.75981747      -3.04823286
S       -8.04946087      -3.76067728      -3.94898105
H       -2.71687812      -0.29659511       0.09166463
H       -4.13719771      -1.71105129      -1.32541865
H       -0.61871595      -3.06297248      -3.45031380
H        0.77065026      -1.64731073      -2.04408410
H       -4.36232056      -3.15617138      -3.13085171
H       -4.80033981      -5.41598592      -4.09397635
H       -3.84454915      -5.66949667      -5.57191742
H       -3.63667029      -2.44677026      -6.06775628
H       -4.96954715      -2.50452426      -7.19548611
H       -3.72404141      -3.78187177      -7.24674744
H       -8.04145178      -7.18414757      -5.10020238
H       -9.66250553      -6.85515106      -3.01305825
C       -9.87753669      -4.27746797      -1.95206128
C      -10.54719470      -3.87350027      -1.03401758
Br     -11.62997508      -3.22031865       0.45038143
C       -0.88129987       0.88129987       0.88129987
C       -1.12842570       2.20204082       0.51747453
C       -1.93868969       3.00587229       1.32719496
C       -2.49172981       2.50023808       2.51095853
C       -2.23552648       1.17100449       2.85976537
C       -1.43572699       0.36076624       2.04598331
N       -3.28967028       3.37269586       3.27944898
C       -3.81779026       3.13159980       4.53737869
O       -3.64761582       2.12440513       5.21870502
C       -4.66231096       4.28413170       5.06133875
N       -5.82797637       4.60378045       4.18058691
C       -6.68426862       3.41039132       3.93885480
S       -6.72695683       5.95273870       4.74587366
O       -7.90419138       6.11106987       3.92005769
O       -6.81729240       5.85875011       6.18636210
C       -5.76321582       7.41484460       4.44204863
C       -5.32590003       8.43461579       5.26853008
C       -4.61064100       9.44116277       4.55243343
C       -4.53356783       9.13528470       3.21714283
S       -5.27463834       7.66576949       2.81871138
H       -0.69561691       2.61575186      -0.38956017
H       -2.11432485       4.03499389       1.02434890
H       -2.65561144       0.72195567       3.75443512
H       -1.25685393      -0.67169467       2.33558531
H       -3.50987177       4.27268034       2.86679154
H       -4.00626666       5.15761263       5.14642279
H       -5.00921116       4.01188890       6.06486318
H       -6.15284403       2.69741987       3.30093295
H       -7.59438631       3.67959573       3.39557548
H       -6.95419034       2.92006347       4.87840682
H       -5.53326186       8.45984472       6.33269514
H       -4.19493526      10.33669848       4.99908109
C       -3.88672713       9.97656426       2.24377455
C       -3.34499804      10.68113590       1.42857862
Br      -2.46906792      11.82036864       0.11047574
C        0.88129987      -0.88129987       0.88129987
C        1.60910982      -1.92399351       0.31483772
C        2.41747886      -2.72816919       1.12610889
C        2.48989921      -2.50560204       2.50742517
C        1.75458768      -1.45250114       3.05920752
C        0.95478263      -0.63870285       2.24899106
N        3.31816748      -3.36283398       3.26081367
C        3.43345283      -3.41277760       4.64053831
O        2.80061342      -2.74031034       5.44980220
C        4.44991940      -4.43986457       5.11799743
N        5.82910555      -4.18389097       4.59934721
C        6.29828211      -2.80942833       4.92580431
S        6.94774166      -5.39190718       5.08592035
O        8.27398216      -5.00209420       4.65924258
O        6.66377228      -5.73715032       6.46148201
C        6.59203183      -6.86722851       4.16084870
C        6.31668485      -8.16764328       4.54471777
C        6.14293695      -9.03605015       3.42525010
C        6.28874449      -8.35292581       2.24432506
S        6.60183160      -6.70218173       2.45510587
H        1.55355291      -2.12082707      -0.75257138
H        2.97355319      -3.53851763       0.66159682
H        1.79022711      -1.22225349       4.11952163
H        0.39778308       0.17812259       2.70108409
H        3.90037028      -4.00942045       2.73955292
H        4.10108469      -5.42386771       4.78534967
H        4.44831429      -4.42363545       6.21401349
H        5.73473486      -2.07751313       4.33894885
H        7.34745137      -2.67302470       4.64908145
H        6.17228886      -2.59050246       5.98986930
H        6.26602789      -8.47682535       5.58294849
H        5.93741067     -10.09769923       3.49560493
C        6.18625970      -8.97238512       0.94842112
C        6.10042869      -9.49118230      -0.13689844
Br       5.96164720     -10.33003346      -1.89176836
