166
Properties=species:S:1:pos:R:3 pbc="F F F"
C        1.79119974       1.79119974      -1.79119974
C        3.14284283       1.50512921      -1.92305181
C        3.94730722       2.31629763      -2.72752124
C        3.41475862       3.41943450      -3.40873930
N        4.21636496       4.24893720      -4.22796276
C        5.59746096       4.34019884      -4.22544886
O        6.37070519       3.67465356      -3.54099378
C        6.14597740       5.37149496      -5.19468070
N        5.29306646       6.57557556      -5.43494391
C        4.94311810       7.32689078      -4.20175493
S        5.90069924       7.57365835      -6.70531179
O        6.34779572       6.70637170      -7.77401860
O        4.95249653       8.63518433      -6.93849199
C        7.40295024       8.35146140      -6.10893982
C        8.73582678       7.98489632      -6.20366604
C        9.60109275       8.89122014      -5.51908632
C        8.88966825       9.91413688      -4.94665975
Br       9.67432321      11.29168805      -3.94937423
S        7.22433621       9.81162581      -5.22609958
C        2.03889971       3.70533999      -3.27504806
C        1.39029358       4.88885051      -3.94238054
C        1.23866731       2.88120093      -2.45944533
H        3.58645429       0.65451256      -1.41126520
H        4.99405041       2.04190452      -2.81775988
H        3.74482616       4.93956662      -4.80426976
H        6.29414632       4.83235711      -6.13850274
H        7.12210082       5.69430908      -4.81681125
H        4.22357670       6.76689388      -3.60146908
H        4.45414845       8.27444027      -4.44362968
H        5.82929540       7.51481873      -3.59003675
H        9.06672921       7.09881415      -6.73465453
H       10.67808477       8.78762430      -5.45641252
H        0.33485378       4.98118393      -3.66375261
H        1.43903267       4.78721455      -5.03041790
H        1.88542624       5.81548355      -3.63486192
H        0.17806837       3.09764812      -2.34077074
C       -1.79119974      -1.79119974      -1.79119974
C       -1.20784254      -2.69305281      -2.67012850
C       -2.01761754      -3.49540897      -3.47809958
C       -3.41531083      -3.40851956      -3.41910204
N       -4.24822352      -4.21528518      -4.22975622
C       -3.88402755      -4.90728103      -5.37180009
O       -2.75527171      -4.97969506      -5.85138576
C       -5.03495275      -5.63679438      -6.04040594
N       -6.38274902      -5.00132297      -5.91951395
C       -6.44252727      -3.60509014      -6.42414641
S       -7.64633887      -6.01066370      -6.52266682
O       -7.37805618      -7.36404368      -6.08608615
O       -8.90758305      -5.36463147      -6.25395834
C       -7.47677442      -6.07956272      -8.30701432
C       -6.81616945      -6.96756157      -9.14065813
C       -6.90289532      -6.59278886     -10.51571503
C       -7.63738821      -5.44498364     -10.66809303
Br      -7.95896825      -4.63197105     -12.32444620
S       -8.22714851      -4.82704720      -9.20786589
C       -4.00520450      -2.49258996      -2.52149330
C       -5.49583371      -2.30864952      -2.41704140
C       -3.17800038      -1.68772017      -1.71359302
H       -0.12677028      -2.78798859      -2.73747319
H       -1.51779319      -4.20107829      -4.13484332
H       -5.24518769      -4.20722599      -4.03624886
H       -5.05531336      -6.63147559      -5.57821721
H       -4.78525685      -5.74671922      -7.10124508
H       -5.91171398      -2.92970309      -5.75052259
H       -7.47339047      -3.24217282      -6.45665511
H       -5.99199809      -3.52529193      -7.41686086
H       -6.28822140      -7.84031524      -8.77166125
H       -6.44875025      -7.13940545     -11.33396589
H       -5.75566506      -1.50663143      -1.71749383
H       -5.96938613      -3.22763952      -2.05963947
H       -5.91257571      -2.03232515      -3.39087085
H       -3.62143028      -0.97054246      -1.02451448
C       -1.79119974       1.79119974       1.79119974
C       -1.21985283       2.54245649       2.80871454
C       -2.03013347       3.34505247       3.61594015
C       -3.41633338       3.40823206       3.41836698
N       -4.24939301       4.21732426       4.22654765
C       -3.94169530       4.75877924       5.46263412
O       -2.86643102       4.66973798       6.05018354
C       -5.08228038       5.53730282       6.09256986
N       -6.46380771       5.05784232       5.78193591
C       -6.70497668       3.63425149       6.13253563
S       -7.68316755       6.13116985       6.36533198
O       -7.24650153       7.48454097       6.09714351
O       -8.96476319       5.64612088       5.91528878
C       -7.69231855       6.01573284       8.15530007
C       -7.04110495       6.74954440       9.13373980
C       -7.30331053       6.25921344      10.44887524
C       -8.15329901       5.18384795      10.41331791
Br      -8.71784104       4.25746191      11.94008255
S       -8.64475904       4.76857430       8.84872826
C       -3.99354396       2.64544739       2.38029640
C       -5.47614784       2.62630650       2.11907029
C       -3.16624426       1.83856318       1.57450614
H       -0.14731977       2.51902759       2.98588469
H       -1.53693963       3.93131251       4.38546266
H       -5.21756411       4.32989352       3.94120491
H       -4.96224883       6.56751356       5.73524377
H       -4.93385092       5.52165746       7.17771276
H       -6.17294614       2.97356746       5.44542606
H       -7.76302039       3.37782552       6.03137249
H       -6.36832602       3.41641229       7.14941256
H       -6.39901135       7.59393976       8.90724678
H       -6.88678027       6.67761062      11.35773071
H       -5.73624459       1.92393768       1.31960805
H       -5.82275127       3.61840027       1.81551358
H       -6.01474511       2.30478771       3.01623889
H       -3.60133618       1.23811910       0.77703194
C        1.79119974      -1.79119974       1.79119974
C        3.16661000      -1.60585466       1.79855919
C        3.97057550      -2.41698226       2.60356833
C        3.41392576      -3.41985460       3.40915206
N        4.21487282      -4.24787694       4.23051516
C        5.58063817      -4.44996616       4.13250434
O        6.34368057      -3.90166494       3.34100702
C        6.12707021      -5.44701643       5.13806642
N        5.20897184      -6.55727232       5.53734177
C        4.70589603      -7.36772509       4.39814270
S        5.84088142      -7.50364142       6.83514654
O        6.43591416      -6.59798822       7.79428364
O        4.83811288      -8.46505830       7.22300167
C        7.22812856      -8.44211320       6.19310970
C        8.58789148      -8.17801327       6.15848439
C        9.32532283      -9.19951682       5.48655957
C        8.49592090     -10.20161913       5.05292485
Br       9.09295638     -11.70830675       4.11412237
S        6.87076705      -9.94484021       5.44645435
C        2.01430998      -3.60322301       3.40175476
C        1.33519894      -4.67767460       4.20865109
C        1.21462062      -2.78037290       2.58432005
H        3.62969302      -0.83420028       1.18833876
H        5.03870520      -2.22179614       2.59321346
H        3.74114073      -4.85345553       4.89406627
H        6.39048484      -4.85276710       6.02175423
H        7.04284113      -5.87461254       4.71576748
H        3.98407344      -6.79788398       3.80998224
H        4.16877883      -8.25217796       4.75126162
H        5.52348234      -7.67142352       3.73924502
H        9.02553968      -7.28437074       6.59028746
H       10.39848762      -9.18792137       5.33571260
H        0.25681724      -4.70522975       4.01774333
H        1.47881050      -4.49954226       5.27831236
H        1.73357410      -5.66148347       3.94071414
H        0.13474502      -2.91896495       2.56277726
C       -0.00445707       0.01189536      -1.78238275
H       -0.66409135       0.67374010      -2.43557963
H        0.65740317      -0.63156657      -2.45157240
C       -0.90989263      -0.90692880      -0.91072765
C        0.90977584       0.90977584      -0.90977584
C       -0.00465871       1.77757030       0.00794375
H       -0.66225468       2.44313916      -0.64384735
H        0.64322798       2.43503045       0.67728295
C       -1.78241447       0.00034974      -0.00472694
H       -2.45427497      -0.65498947       0.64260836
H       -2.43311707       0.67328779      -0.65473579
C       -0.91132561       0.90220522       0.91563759
C       -0.01476271      -0.02253852       1.78660255
H       -0.67934791      -0.69751639       2.42135241
H        0.63392994       0.61504881       2.47327442
C        0.01484550      -1.77751727      -0.01636693
H        0.67870853      -2.42144646      -0.68295456
H       -0.62264859      -2.45592969       0.64226336
C        1.78714474       0.01002794       0.00389507
H        2.44202412       0.67113390       0.66197326
H        2.45385902      -0.65136977      -0.64189061
C        0.91606151      -0.90478549       0.90901405
