193
Properties=species:S:1:pos:R:3 pbc="F F F"
C        0.00000000       0.00000000       0.00000000
C        0.88106154       0.88106154      -0.88106154
C        1.92325802       0.31449921      -1.61155961
C        2.72617864       1.12501688      -2.42183596
C        2.47816230       2.49947428      -2.52004799
C        1.43757604       3.05398315      -1.76861021
C        0.64013007       2.24893017      -0.94977042
N        3.32434325       3.26391130      -3.35025461
C        3.12255852       4.58018873      -3.72888018
O        2.08647445       5.21560274      -3.57609059
C        4.33891135       5.19618868      -4.41818948
C        4.39403416       4.74634571      -5.88671865
C        5.30377179       5.65497595      -6.70945870
C        4.83818996       7.12692832      -6.70991146
C        3.88202392       7.43112183      -5.54236202
C        4.32892060       6.72966447      -4.26339600
C        6.03293925       8.09638840      -6.66891495
N        6.91232831       7.88306910      -7.82938213
S        8.32801243       8.80980461      -7.86029814
O        8.98983561       8.68105308      -6.58005820
O        8.99618716       8.53620185      -9.11136623
C        7.83189797      10.51535614      -7.94690334
C        8.09084100      11.60422847      -7.13386537
C        7.41042639      12.77959322      -7.57168564
C        6.67228065      12.53010744      -8.70115049
S        6.78806977      10.92949968      -9.24212305
H        2.11688502      -0.75350737      -1.55958453
H        3.53224594       0.66153882      -2.98429177
H        1.23071099       4.12006892      -1.78128442
H       -0.16074905       2.70598013      -0.37450838
H        4.12977461       2.78850162      -3.73729723
H        5.23158337       4.82602557      -3.89597914
H        3.38835689       4.73808737      -6.32759472
H        4.75682458       3.71322766      -5.94455009
H        6.32383614       5.57227766      -6.31316083
H        5.34620368       5.29129484      -7.74347519
H        4.28672809       7.31205959      -7.64201503
H        3.81085219       8.51165970      -5.37117921
H        2.86918217       7.09801234      -5.80331510
H        5.34174394       7.06387133      -4.00655331
H        3.69597389       7.05087162      -3.42806020
H        6.60186922       7.95389197      -5.74434076
H        5.65619588       9.12469721      -6.68789361
H        6.45303264       7.90500243      -8.74072226
H        8.72818836      11.54500424      -6.25828066
H        7.46323796      13.74178117      -7.07631010
C        5.86836053      13.52488196      -9.36276676
C        5.19507744      14.35800562      -9.91687039
Br       4.10643561      15.70509612     -10.81280910
C       -0.88106154      -0.88106154      -0.88106154
C       -0.36478473      -1.43331169      -2.05122043
C       -1.17446806      -2.24436151      -2.85420192
C       -2.49497796      -2.52197126      -2.48073536
C       -3.00164740      -1.94749840      -1.31102359
C       -2.19885296      -1.12804689      -0.51193082
N       -3.26198392      -3.34312236      -3.33340289
C       -4.50176895      -3.88662519      -3.04323328
O       -5.02818457      -3.91254404      -1.93743917
C       -5.17819984      -4.51418177      -4.26090789
C       -4.59083426      -5.90922735      -4.52703691
C       -5.50830272      -6.73285160      -5.42705212
C       -6.91049851      -6.94692847      -4.81760276
C       -7.22151227      -5.92431073      -3.70968478
C       -6.70845694      -4.53555171      -4.07797242
C       -8.00793139      -6.89480156      -5.89550965
N       -7.77877656      -7.92848078      -6.91752220
S       -8.85166140      -7.92018966      -8.22626413
O       -8.92909298      -6.57311086      -8.74874305
O       -8.52985461      -9.05803018      -9.05587045
C      -10.47255475      -8.24892429      -7.57267841
C      -11.66054379      -7.54214449      -7.62624656
C      -12.70093876      -8.17677963      -6.88398686
C      -12.25632557      -9.33981681      -6.30739620
S      -10.63250002      -9.68182369      -6.64536880
H        0.66366893      -1.24156307      -2.34506805
H       -0.75043278      -2.66612628      -3.76151746
H       -4.03069285      -2.10152792      -0.99984355
H       -2.61842033      -0.69237149       0.39105236
H       -2.84387817      -3.59022485      -4.22147044
H       -4.96621998      -3.86562862      -5.12173949
H       -4.42425934      -6.44607442      -3.58370521
H       -3.60484846      -5.81279464      -4.99695924
H       -5.58208055      -6.22832371      -6.39887037
H       -5.04874331      -7.70945363      -5.62277677
H       -6.93658477      -7.94508820      -4.35912974
H       -8.29883296      -5.88448492      -3.51037322
H       -6.75129745      -6.24732590      -2.77188625
H       -7.17933734      -4.21672515      -5.01610610
H       -7.03912468      -3.81042780      -3.32535324
H       -8.02519618      -5.90713153      -6.36777422
H       -8.97979450      -7.06802496      -5.42096724
H       -7.65608377      -8.87831934      -6.56435422
H      -11.76287928      -6.60536864      -8.16322534
H      -13.70818592      -7.79056616      -6.78257715
C      -13.08156101     -10.18776518      -5.48668307
C      -13.77269569     -10.89792193      -4.79933583
Br     -14.89020201     -12.04618535      -3.68795347
C       -0.88106154       0.88106154       0.88106154
C       -2.02334981       1.47598143       0.34998561
C       -2.83118192       2.27960497       1.16224459
C       -2.51138664       2.47504434       2.51125359
C       -1.35334619       1.88270279       3.02412042
C       -0.53814510       1.08791300       2.21277256
N       -3.36252864       3.29853103       3.27744949
C       -3.32826892       3.45023750       4.65312100
O       -2.70012379       2.74487891       5.43316507
C       -4.20612674       4.59805134       5.14911142
C       -5.67558015       4.15081523       5.20070315
C       -6.50597303       5.08103080       6.08120261
C       -6.00278320       5.13242505       7.53982150
C       -4.55130902       4.63578956       7.66840919
C       -3.69394636       5.12349308       6.50454163
C       -6.12068293       6.55006276       8.12749691
N       -7.51900161       7.00761977       8.09815816
S       -7.78461877       8.59634580       8.61715062
O       -6.85864786       9.46683413       7.92546490
O       -9.21175886       8.81936607       8.61263032
C       -7.29440931       8.67495244      10.32479570
C       -6.37362062       9.45990654      10.99540768
C       -6.27199674       9.11373246      12.37597605
C       -7.12582794       8.08680322      12.69090743
S       -8.04179763       7.54390035      11.37399452
H       -2.29441057       1.31911934      -0.69056773
H       -3.71839952       2.73213957       0.72753744
H       -1.04248710       2.03624092       4.05333629
H        0.35756842       0.64110780       2.63620007
H       -4.09188013       3.78862677       2.77506657
H       -4.10653209       5.41990445       4.42715154
H       -5.75472224       3.12226166       5.57705507
H       -6.09364868       4.13377034       4.18718332
H       -6.49407677       6.08256334       5.63263452
H       -7.55305698       4.75420735       6.07370937
H       -6.63248148       4.46460168       8.14371956
H       -4.11276732       4.96222353       8.61870025
H       -4.54128898       3.53838199       7.69083863
H       -3.70745893       6.22025533       6.48445432
H       -2.64726286       4.84857970       6.67906315
H       -5.49333018       7.24589959       7.56087217
H       -5.76952710       6.53438210       9.16487749
H       -8.19868963       6.37616260       8.52390510
H       -5.79334917      10.23363342      10.50449067
H       -5.60536260       9.59287387      13.08309276
C       -7.23218082       7.51541964      14.00840880
C       -7.32125135       7.03688590      15.11181620
Br      -7.46527088       6.26313730      16.89593265
C        0.88106154      -0.88106154       0.88106154
C        0.34799749      -2.01920640       1.48211296
C        1.16024095      -2.82707017       2.28572036
C        2.51112009      -2.51151916       2.47504532
C        3.02604241      -1.35754601       1.87658098
C        2.21476948      -0.54228437       1.08177681
N        3.27721556      -3.36245034       3.29884327
C        4.65355121      -3.33268904       3.44538717
O        5.43329273      -2.70999912       2.73487593
C        5.15053837      -4.20815619       4.59459494
C        5.19510870      -5.67941614       4.15257368
C        6.07597417      -6.50962775       5.08260453
C        7.53660380      -6.01161444       5.12681150
C        7.66867760      -4.56244970       4.62438048
C        6.50975492      -3.69903850       5.11318765
C        8.12904715      -6.12648300       6.54271245
N        8.09627194      -7.52300054       7.00550705
S        8.62012110      -7.78470610       8.59328799
O        7.93503105      -6.85302111       9.46289473
O        8.61119703      -9.21099419       8.82156403
C       10.32982603      -7.30048814       8.66384328
C       11.00668222      -6.37930237       9.44295025
C       12.38633237      -6.28401795       9.09135493
C       12.69436251      -7.14275284       8.06642324
S       11.37212083      -8.05585980       7.53171188
H       -0.69411008      -2.28701539       1.33005687
H        0.72395487      -3.71102288       2.74309878
H        4.05694612      -1.04990974       2.02520847
H        2.63982821       0.35022654       0.63013779
H        2.77397035      -4.08815300       3.79345011
H        4.43197157      -4.10290312       5.41871340
H        5.56738780      -5.76370390       3.12294728
H        4.18000984      -6.09381853       4.14077397
H        5.63113452      -6.49241854       6.08572157
H        6.06344841      -7.55786620       4.75965909
H        8.13573610      -6.64596662       4.45910000
H        8.62175993      -4.12620986       4.94572131
H        7.68711237      -4.55652847       3.52686876
H        6.49364710      -3.70846318       6.21005831
H        6.68709492      -2.65401626       4.83379454
H        7.56728198      -5.49451071       7.23830925
H        9.16764134      -5.77919982       6.52194553
H        8.51720614      -8.20655431       6.37499688
H       10.52073757      -5.79440379      10.21633191
H       13.09763932      -5.61823662       9.56545329
C       14.00935811      -7.25603494       7.49061622
C       15.11066693      -7.35090869       7.00837783
Br      16.89139014      -7.50431153       6.22863915
