149
Properties=species:S:1:pos:R:3 pbc="F F F"
C        0.00000000       0.00000000       0.00000000
C        7.30745301       4.72316520      -6.57054243
C        7.25972980       5.31438421      -5.16671021
N        6.71023778       4.37437328      -4.17304776
C        5.33915678       4.12824779      -4.02914892
S        4.23492596       5.11803119      -4.90905548
C        2.91591317       4.30094357      -4.20459744
C        3.37232664       3.34194716      -3.32442601
N        4.75694775       3.22469750      -3.27335539
C        2.50275898       2.50566223      -2.50060097
C        3.00657337       1.32141258      -1.94219784
C        2.19973518       0.51090858      -1.13854774
C        0.88106882       0.88106882      -0.88106882
C        0.36458574       2.05682226      -1.41988339
C        1.17398470       2.86465822      -2.22369613
C        7.67663840       3.65290362      -3.43739356
O        8.88803395       3.79566500      -3.65016467
C        7.35339484       2.75636970      -2.30417811
C        6.70585054       3.29076686      -1.17722881
C        6.50422263       2.50600481      -0.03879439
C        6.99392829       1.20269753       0.00711931
C        7.67133515       0.67519385      -1.09339382
C        7.84236723       1.44597400      -2.25212536
Br       8.74434613       0.61135660      -3.70710512
H        7.81625204       5.41291489      -7.25159051
H        6.30615143       4.54479489      -6.96868157
H        7.84290861       3.77074196      -6.58059348
H        6.69328056       6.25232250      -5.15031965
H        8.27968821       5.60504835      -4.88349269
H        1.90300248       4.57437921      -4.45991215
H        4.03606132       1.02200080      -2.13049605
H        2.61113027      -0.40493016      -0.71742691
H       -0.66149252       2.35572423      -1.21627575
H        0.74531013       3.78610711      -2.61180201
H        6.34631760       4.31673148      -1.18644986
H        5.97516883       2.91849783       0.81589287
H        6.85841385       0.60088008       0.90097172
H        8.06633869      -0.33809943      -1.03668148
C       -7.34619378      -4.73993505      -6.51503181
C       -7.25564882      -5.35954778      -5.12562763
N       -6.70481876      -4.42911104      -4.12372902
C       -5.33646142      -4.15651234      -4.00357974
S       -4.23081377      -5.10336737      -4.92783148
C       -2.91446452      -4.27305046      -4.23393922
C       -3.37193411      -3.34297430      -3.32379140
N       -4.75729851      -3.25678085      -3.24092127
C       -2.50265093      -2.50570655      -2.50066470
C       -3.01921814      -1.34469812      -1.90626752
C       -2.21252638      -0.53412836      -1.10253675
C       -0.88106882      -0.88106882      -0.88106882
C       -0.35159513      -2.03372551      -1.45597076
C       -1.16090642      -2.84168035      -2.25975228
C       -7.67014093      -3.74441707      -3.35237759
O       -8.88256069      -3.90879120      -3.54251174
C       -7.34152038      -2.86527876      -2.20714351
C       -6.65861418      -3.40927629      -1.10595574
C       -6.44907655      -2.64459731       0.04465204
C       -6.96513505      -1.35344006       0.12906860
C       -7.67717304      -0.81753741      -0.94521236
C       -7.85686322      -1.56715035      -2.11645302
Br      -8.80752714      -0.72162947      -3.53365123
H       -7.85488752      -5.42595838      -7.19991154
H       -6.35772719      -4.53158585      -6.93031485
H       -7.90176842      -3.79930622      -6.49316941
H       -6.66926411      -6.28516260      -5.14149600
H       -8.26287185      -5.67811169      -4.82724572
H       -1.90175052      -4.51907088      -4.51647245
H       -4.05863797      -1.06368789      -2.06623232
H       -2.63400556       0.36349307      -0.65311453
H        0.68473664      -2.31462369      -1.28062040
H       -0.72132354      -3.74523432      -2.67666140
H       -6.27774258      -4.42680697      -1.14494939
H       -5.89306901      -3.06354789       0.87884312
H       -6.82309634      -0.76787708       1.03265121
H       -8.09220467       0.18555660      -0.85827267
C       -5.65550914       7.71770663       5.22794487
C       -4.66023188       6.97188714       6.10870521
N       -3.56774159       6.35530055       5.33461668
C       -3.71473466       5.15720112       4.62461773
S       -5.17168875       4.25853657       4.83178732
C       -4.58907580       3.04269824       3.78968015
C       -3.31831989       3.36193007       3.35844985
N       -2.85487527       4.59421713       3.80590824
C       -2.50198283       2.50113995       2.50589939
C       -1.41472207       3.04763178       1.80782994
C       -0.60927225       2.24301755       0.99690169
C       -0.88106882       0.88106882       0.88106882
C       -1.95117955       0.31810042       1.57201142
C       -2.75504813       1.12575364       2.38153728
C       -2.37913900       7.11615152       5.27164507
O       -2.29577481       8.22804641       5.81004240
C       -1.11955892       6.63315897       4.66122476
C       -0.50787098       5.48130983       5.18466539
C        0.74571364       5.07338877       4.72134669
C        1.42360457       5.83829258       3.77481850
C        0.84058929       7.00435433       3.27615778
C       -0.43370465       7.39694452       3.70981742
Br      -1.14956538       8.98117086       2.93207160
H       -6.38632778       8.24457698       5.84985268
H       -6.20697723       7.03755139       4.57509926
H       -5.15072523       8.45013424       4.59338459
H       -5.16215751       6.21358190       6.72018331
H       -4.24859517       7.68281639       6.83681769
H       -5.19301689       2.17521785       3.56905911
H       -1.18727599       4.10878636       1.89249583
H        0.22797474       2.68899488       0.46260688
H       -2.16401455      -0.74584937       1.49234228
H       -3.57002340       0.65022814       2.92296771
H       -1.01078254       4.89162104       5.94709536
H        1.19660700       4.16442433       5.10995645
H        2.40844392       5.53423935       3.43252678
H        1.39000261       7.60347615       2.55144720
C        5.17108234      -7.70387500       5.72620329
C        4.56482340      -6.59634284       6.57965799
N        3.45738218      -5.89866928       5.90160736
C        3.65660243      -4.92173450       4.91821657
S        5.26331063      -4.36350323       4.63519878
C        4.69226981      -3.26225028       3.46693410
C        3.31949301      -3.35245395       3.36675285
N        2.75085170      -4.33757801       4.16657092
C        2.50304966      -2.50044677       2.50552575
C        1.20102839      -2.90002925       2.16912614
C        0.39415045      -2.09640024       1.35864081
C        0.88106882      -0.88106882       0.88106882
C        2.16814162      -0.46310718       1.21004259
C        2.97261696      -1.26953187       2.02019022
C        2.16605530      -6.36072677       6.24015352
O        2.00382809      -7.30219699       7.02783854
C        0.91216752      -5.72121282       5.78056231
C        0.66493561      -4.38190006       6.12701054
C       -0.56309347      -3.78796565       5.82414964
C       -1.57282569      -4.53749529       5.22483692
C       -1.34986447      -5.87908926       4.91069803
C       -0.10609034      -6.46873720       5.17781973
Br       0.10077982      -8.29246822       4.66955980
H        5.91470289      -8.26035159       6.30570296
H        5.67293874      -7.30459733       4.84209182
H        4.40509601      -8.40433364       5.38481440
H        5.32755476      -5.87482947       6.89353848
H        4.20817496      -7.04340748       7.51664682
H        5.37956212      -2.61561690       2.94211482
H        0.80538688      -3.84435059       2.53882070
H       -0.61241473      -2.42749932       1.10854243
H        2.55151811       0.48820824       0.84719759
H        3.96509767      -0.90372291       2.27439867
H        1.43216674      -3.79337913       6.62395306
H       -0.73350549      -2.74302096       6.06825832
H       -2.53561562      -4.08250785       5.01142998
H       -2.15448826      -6.45877244       4.46063656
