170
Properties=species:S:1:pos:R:3 pbc="F F F"
C        8.21735703       5.63306923      -7.48044646
C        8.16963383       6.22428824      -6.07661424
N        7.62014180       5.28427731      -5.08295179
C        6.24906081       5.03815182      -4.93905295
S        5.14482998       6.02793522      -5.81895951
C        3.82581720       5.21084760      -5.11450147
C        4.28223066       4.25185119      -4.23433003
N        5.66685177       4.13460152      -4.18325941
C        3.41266300       3.41556625      -3.41050500
C        3.91647739       2.23131660      -2.85210186
C        3.10963920       1.42081260      -2.04845176
C        1.79097285       1.79097285      -1.79097285
C        1.27448977       2.96672629      -2.32978741
C        2.08388872       3.77456225      -3.13360015
C        8.58654243       4.56280765      -4.34729758
O        9.79793798       4.70556903      -4.56006870
C        8.26329886       3.66627372      -3.21408214
C        7.61575457       4.20067088      -2.08713283
C        7.41412665       3.41590884      -0.94869841
C        7.90383231       2.11260156      -0.90278471
C        8.58123917       1.58509787      -2.00329784
C        8.75227126       2.35587802      -3.16202938
Br       9.65425016       1.52126062      -4.61700914
H        8.72615607       6.32281892      -8.16149453
H        7.21605545       5.45469891      -7.87858559
H        8.75281263       4.68064599      -7.49049751
H        7.60318458       7.16222653      -6.06022368
H        9.18959224       6.51495238      -5.79339672
H        2.81290651       5.48428324      -5.36981618
H        4.94596535       1.93190483      -3.04040008
H        3.52103429       0.50497386      -1.62733093
H        0.24841150       3.26562826      -2.12617977
H        1.65521416       4.69601113      -3.52170603
H        7.25622162       5.22663550      -2.09635389
H        6.88507285       3.82840186      -0.09401115
H        7.76831787       1.51078411      -0.00893230
H        8.97624272       0.57180459      -1.94658550
C       -7.47192536      -5.63552136      -8.22342599
C       -8.00507370      -5.66933196      -6.79613064
N       -7.42873586      -4.60922677      -5.94940827
C       -6.14847815      -4.69011333      -5.38767409
S       -5.29068885      -6.17995662      -5.52107924
C       -3.99492175      -5.53303108      -4.62321343
C       -4.28358320      -4.23767751      -4.24715117
N       -5.49470648      -3.75720402      -4.73280221
C       -3.41427018      -3.41448274      -3.40998133
C       -3.58091195      -2.02158560      -3.39739831
C       -2.77192500      -1.21261739      -2.59436117
C       -1.79097285      -1.79097285      -1.79097285
C       -1.61495659      -3.17243445      -1.78361243
C       -2.42522991      -3.97841124      -2.58840997
C       -8.22298217      -3.44749486      -5.82617062
O       -9.30501891      -3.34010610      -6.41845069
C       -7.90103965      -2.31749946      -4.92511562
C       -7.80489837      -2.55525912      -3.54340078
C       -7.63370606      -1.49215206      -2.65287578
C       -7.61249647      -0.18173563      -3.12498648
C       -7.74470010       0.06711587      -4.49205066
C       -7.87819009      -0.99869990      -5.39328868
Br      -8.00903110      -0.54513231      -7.23835651
H       -8.00181574      -6.36876997      -8.83988381
H       -6.40771906      -5.87797284      -8.26364805
H       -7.60427826      -4.64790309      -8.67177477
H       -7.84134686      -6.64966948      -6.33461845
H       -9.09701277      -5.56426479      -6.83666377
H       -3.12067030      -6.13152403      -4.41481159
H       -4.34624954      -1.55611816      -4.01590255
H       -2.91753664      -0.13368903      -2.60211342
H       -0.85643572      -3.63102481      -1.15275901
H       -2.27468046      -5.05486994      -2.54338092
H       -7.85179441      -3.57038194      -3.15703466
H       -7.52940053      -1.68870637      -1.58937896
H       -7.50369698       0.64599792      -2.43033522
H       -7.74640960       1.09722131      -4.84544452
C       -5.85158639       8.50393657       6.97534976
C       -5.50677384       7.22863245       7.73513001
N       -4.40896078       6.47218706       7.10622305
C       -4.58740939       5.65792390       5.98093228
S       -6.19540092       5.36445688       5.43186690
C       -5.60617298       4.34427611       4.20071717
C       -4.23192242       4.25609460       4.28039486
N       -3.66404116       5.04972416       5.27094739
C       -3.41360878       3.41009583       3.41502964
C       -2.03904885       3.66432327       3.29652374
C       -1.23128209       2.86107489       2.48654659
C       -1.79097285       1.79097285       1.79097285
C       -3.15203398       1.51751596       1.90145352
C       -3.95705472       2.32322283       2.71177357
C       -3.13027426       6.70781234       7.65856105
O       -2.96553736       7.51593194       8.58210640
C       -1.91153803       5.96200888       7.27010781
C       -1.87788135       4.56947681       7.45620012
C       -0.70063657       3.85311806       7.22497927
C        0.46501689       4.52335311       6.86088236
C        0.45104880       5.91088604       6.70979765
C       -0.73727308       6.62951319       6.90339239
Br      -0.65048900       8.51225594       6.62977497
H       -6.59521227       9.08339283       7.53186443
H       -6.27147397       8.28723459       5.99063139
H       -4.96698510       9.12833889       6.82863214
H       -6.38693094       6.58640468       7.85229916
H       -5.23114796       7.50591631       8.76087705
H       -6.28768230       3.86654337       3.51278025
H       -1.58696490       4.49358565       3.83771971
H       -0.16733118       3.07822474       2.40778316
H       -3.59384753       0.67886250       1.36750949
H       -5.01191587       2.06951496       2.79150050
H       -2.77160224       4.03650968       7.77109910
H       -0.69287254       2.77290812       7.34170520
H        1.38596997       3.96930062       6.70470363
H        1.37401019       6.42435750       6.44428551
C        6.11971730      -8.62364949       6.58750592
C        5.47580264      -7.54473860       7.44999506
N        4.36813906      -6.85527682       6.76395501
C        4.56704473      -5.85574319       5.80347764
S        6.16768826      -5.26150692       5.56252952
C        5.59773044      -4.14881772       4.40461811
C        4.22913609      -4.26326630       4.27600948
N        3.66461400      -5.27446887       5.04562984
C        3.41285567      -3.41039999       3.41547858
C        2.12553057      -3.82815882       3.04620647
C        1.31878484      -3.02445833       2.23566040
C        1.79097285      -1.79097285       1.79097285
C        3.06313891      -1.35498268       2.15288188
C        3.86754384      -2.16151714       2.96299014
C        3.07982499      -7.34843072       7.06839195
O        2.92094715      -8.30799389       7.83463466
C        1.82272814      -6.72416059       6.59676600
C        1.54287934      -5.39681909       6.96385984
C        0.30952475      -4.82067049       6.64853866
C       -0.67377976      -5.57753988       6.01545846
C       -0.41876552      -6.90825485       5.68014556
C        0.83092764      -7.47912156       5.96012946
Br       1.08295776      -9.28832012       5.42124204
H        6.86282826      -9.17699876       7.17064250
H        6.63050200      -8.19770926       5.72112870
H        5.37418383      -9.33183311       6.21793919
H        6.21819783      -6.81503444       7.79240251
H        5.11009235      -8.01670351       8.37114547
H        6.28219854      -3.47906958       3.90573780
H        1.74136752      -4.78688967       3.39001306
H        0.32382281      -3.36979501       1.95972127
H        3.43477439      -0.38962813       1.81581702
H        4.84767198      -1.78183268       3.24342667
H        2.28886545      -4.80353786       7.48680770
H        0.11415684      -3.78412611       6.90920291
H       -1.64099656      -5.13696105       5.79206979
H       -1.20319829      -7.49432933       5.20350177
C       -0.00445707       0.01189536      -1.78238275
H       -0.66409135       0.67374010      -2.43557963
H        0.65740317      -0.63156657      -2.45157240
C       -0.90989263      -0.90692880      -0.91072765
C        0.90977584       0.90977584      -0.90977584
C       -0.00465871       1.77757030       0.00794375
H       -0.66225468       2.44313916      -0.64384735
H        0.64322798       2.43503045       0.67728295
C       -1.78241447       0.00034974      -0.00472694
H       -2.45427497      -0.65498947       0.64260836
H       -2.43311707       0.67328779      -0.65473579
C       -0.91132561       0.90220522       0.91563759
C       -0.01476271      -0.02253852       1.78660255
H       -0.67934791      -0.69751639       2.42135241
H        0.63392994       0.61504881       2.47327442
C        0.01484550      -1.77751727      -0.01636693
H        0.67870853      -2.42144646      -0.68295456
H       -0.62264859      -2.45592969       0.64226336
C        1.78714474       0.01002794       0.00389507
H        2.44202412       0.67113390       0.66197326
H        2.45385902      -0.65136977      -0.64189061
C        0.91606151      -0.90478549       0.90901405
