178
Properties=species:S:1:pos:R:3 pbc="F F F"
C        1.77701747       1.77701747      -1.77701747
C        2.67896328       2.71068736      -1.32133728
C        3.26453640       3.28890002      -2.47368554
C        2.68195255       2.67501421      -3.56623693
O        1.77271987       1.74316149      -3.13635715
C        2.88793221       2.86596225      -4.98544829
O        3.66243703       3.70065579      -5.44717195
N        2.14944748       2.01277592      -5.77997799
C        2.23819062       2.00156375      -7.22302705
C        3.28180439       1.02249168      -7.78414209
C        2.94742519      -0.44247773      -7.48042786
C        3.97443780      -1.38378277      -8.11084940
N        5.36063350      -1.02692955      -7.81119750
C        5.71866028       0.38801761      -7.91813626
C        4.69493205       1.31309829      -7.27681776
C        6.31216786      -2.06937286      -7.85098203
O        5.95644084      -3.24278409      -7.73677395
C        7.72326054      -1.74228822      -8.01058561
C        8.85221569      -2.42225422      -7.58625337
C        9.97463217      -1.68036504      -8.03177007
C        9.46955048      -0.61410980      -8.73710879
Br      10.48545269       0.71336592      -9.56396891
O        8.11333787      -0.65658178      -8.75141802
H        2.89045093       2.94870756      -0.28822283
H        4.02105562       4.06147081      -2.51872128
H        1.54803270       1.34723962      -5.30668700
H        2.46553901       3.01607651      -7.57060062
H        1.24241516       1.74256706      -7.59996067
H        3.27698231       1.14956814      -8.87587210
H        1.94935660      -0.69022418      -7.86079446
H        2.92870358      -0.60776120      -6.39597877
H        3.76221884      -2.40923423      -7.78959264
H        3.87462632      -1.36592016      -9.20338101
H        6.67250200       0.57009157      -7.41509291
H        5.83113657       0.62225569      -8.98276422
H        4.74130240       1.16934057      -6.19007246
H        4.97095015       2.35349748      -7.48155246
H        8.84906772      -3.33806279      -7.00999699
H       11.01915105      -1.90218458      -7.86459126
C       -1.77701747      -1.77701747      -1.77701747
C       -2.59365280      -2.78919591      -1.32813921
C       -3.21450021      -3.33461218      -2.47800958
C       -2.73672437      -2.62382893      -3.56265040
O       -1.85827453      -1.66429708      -3.12966690
C       -3.01816978      -2.74457083      -4.97660214
O       -3.76995771      -3.59716287      -5.44314419
N       -2.38058457      -1.80301550      -5.75860132
C       -2.55838542      -1.71373087      -7.19066513
C       -3.68946928      -0.76982886      -7.62914001
C       -3.42244949       0.69287631      -7.25580214
C       -4.53906566       1.60418059      -7.76661935
N       -5.88121802       1.14601942      -7.40970285
C       -6.16259907      -0.27969174      -7.58252334
C       -5.04952511      -1.17566264      -7.05966035
C       -6.89216754       2.12853675      -7.33014623
O       -6.59864343       3.31301272      -7.16479999
C       -8.28908906       1.72510309      -7.42757196
C       -9.42729773       2.30865212      -6.89756922
C      -10.53013204       1.52620299      -7.32210815
C      -10.00847455       0.53565986      -8.11973477
Br     -10.99470993      -0.80165016      -8.96642745
O       -8.66044768       0.66219513      -8.20992155
H       -2.72707987      -3.09919784      -0.30110361
H       -3.92634447      -4.14832855      -2.52657469
H       -1.79076081      -1.13028851      -5.28090999
H       -2.74754010      -2.71846835      -7.58620768
H       -1.60434281      -1.37260595      -7.60799413
H       -3.74443001      -0.83293122      -8.72506131
H       -2.46568149       1.02313098      -7.67737636
H       -3.34668948       0.79591836      -6.16615004
H       -4.36723790       2.62041149      -7.39575084
H       -4.50575044       1.65578863      -8.86212537
H       -7.07155865      -0.54889370      -7.03723412
H       -6.32656678      -0.45835436      -8.65123534
H       -5.03723669      -1.09820455      -5.96527419
H       -5.27689404      -2.21745848      -7.31164756
H       -9.44176572       3.18800989      -6.26724610
H      -11.57348531       1.67332634      -7.08139876
C       -1.77701747       1.77701747       1.77701747
C       -2.08580134       1.53033382       3.09485276
C       -2.92394202       2.59369164       3.50948831
C       -3.07982358       3.42604980       2.41733031
O       -2.37044342       2.92575335       1.35604173
C       -3.82705377       4.65455524       2.25773373
O       -4.50927507       5.14879437       3.15219533
N       -3.69216883       5.23641070       1.01362186
C       -4.31530209       6.49117106       0.65630826
C       -3.44131210       7.72794064       0.91918542
C       -2.17219912       7.75357345       0.05960275
C       -1.36644949       9.02975620       0.30529874
N       -1.11925132       9.30561943       1.72003070
C       -2.24956446       9.14044839       2.63480130
C       -3.03575368       7.86141788       2.38767654
C        0.01868930      10.08161614       2.03085019
O        0.95031652      10.17032255       1.23042467
C        0.08856976      10.76303046       3.31709723
C        1.18667431      11.12338744       4.07950171
C        0.69259486      11.79029438       5.22833767
C       -0.67348917      11.83634069       5.08271960
Br      -1.86454634      12.60148617       6.29675503
O       -1.04537024      11.24176795       3.92103591
H       -1.75136823       0.68957081       3.68644228
H       -3.36912459       2.74842471       4.48369842
H       -3.09543762       4.76146948       0.34505221
H       -5.25808337       6.58666676       1.20746602
H       -4.56446222       6.42946017      -0.40897950
H       -4.04777021       8.60429026       0.65036207
H       -2.43304509       7.69037013      -1.00348835
H       -1.54396467       6.88388203       0.28907445
H       -0.42202989       8.96648532      -0.24593796
H       -1.90971227       9.89570501      -0.09333010
H       -1.89068164       9.09993453       3.66707031
H       -2.89889305      10.01592012       2.52134331
H       -2.40528864       7.01315089       2.68227590
H       -3.92065865       7.85161547       3.03372597
H        2.21731528      10.90916118       3.82915603
H        1.26388579      12.19243508       6.05300843
C        1.77701747      -1.77701747       1.77701747
C        2.43333044      -1.36412601       2.91353148
C        3.12712419      -2.49762246       3.40237531
C        2.85518309      -3.53606053       2.53196007
O        2.02166476      -3.09299147       1.53758229
C        3.29351690      -4.91479628       2.53102957
O        4.06243640      -5.37749289       3.37033548
N        2.75631434      -5.67426304       1.51162401
C        3.02420192      -7.08610551       1.35247399
C        2.01864837      -8.00418125       2.06560854
C        0.59999044      -7.88934613       1.49603875
C       -0.35224368      -8.86454835       2.18919977
N       -0.30192175      -8.79760288       3.64922031
C        1.02447615      -8.73585340       4.26448459
C        1.95829194      -7.75353479       3.57302137
C       -1.45920263      -9.20473866       4.34824100
O       -2.55449099      -9.21936063       3.78556106
C       -1.34833399      -9.59083857       5.74905334
C       -2.28022855      -9.52550208       6.77094131
C       -1.66257910     -10.05894815       7.92966814
C       -0.40573669     -10.45736334       7.54092281
Br       0.87223187     -11.23857205       8.65198361
O       -0.21591594     -10.20235676       6.22173328
H        2.41717438      -0.37066662       3.33954032
H        3.75436242      -2.56517868       4.28170661
H        2.11911974      -5.20720482       0.87563476
H        4.03527665      -7.29715557       1.71978391
H        3.01839258      -7.29058909       0.27596122
H        2.36416238      -9.03488343       1.90337673
H        0.60611639      -8.09478412       0.41902637
H        0.22306095      -6.86729611       1.62656410
H       -1.37105689      -8.68379863       1.82983551
H       -0.09594901      -9.89504700       1.91298919
H        0.93747584      -8.41412258       5.30608805
H        1.44813030      -9.74627482       4.24175135
H        1.59072105      -6.73889720       3.77109718
H        2.95709488      -7.83236187       4.01654333
H       -3.28029798      -9.12290736       6.67839256
H       -2.08605594     -10.14749115       8.92012251
C       -0.00445707       0.01189536      -1.78238275
H       -0.66409135       0.67374010      -2.43557963
H        0.65740317      -0.63156657      -2.45157240
C       -0.90989263      -0.90692880      -0.91072765
C        0.90977584       0.90977584      -0.90977584
C       -0.00465871       1.77757030       0.00794375
H       -0.66225468       2.44313916      -0.64384735
H        0.64322798       2.43503045       0.67728295
C       -1.78241447       0.00034974      -0.00472694
H       -2.45427497      -0.65498947       0.64260836
H       -2.43311707       0.67328779      -0.65473579
C       -0.91132561       0.90220522       0.91563759
C       -0.01476271      -0.02253852       1.78660255
H       -0.67934791      -0.69751639       2.42135241
H        0.63392994       0.61504881       2.47327442
C        0.01484550      -1.77751727      -0.01636693
H        0.67870853      -2.42144646      -0.68295456
H       -0.62264859      -2.45592969       0.64226336
C        1.78714474       0.01002794       0.00389507
H        2.44202412       0.67113390       0.66197326
H        2.45385902      -0.65136977      -0.64189061
C        0.91606151      -0.90478549       0.90901405
