154
Properties=species:S:1:pos:R:3 pbc="F F F"
C        1.79086601       1.79086601      -1.79086601
C        3.05912762       1.35846009      -2.15865627
C        3.85965922       2.16909943      -2.97169397
C        3.40151653       3.42163833      -3.42834395
C        2.12208760       3.83850939      -3.04156023
C        1.32106693       3.02561364      -2.22644808
N        4.25811936       4.19978418      -4.27090177
N        5.48686242       3.70584530      -4.60498899
N        6.10295260       4.55527209      -5.40864895
C        5.27651838       5.61622522      -5.59395304
C        4.09787278       5.44238284      -4.88094973
C        2.93211379       6.34996013      -4.78610284
S        5.70084257       6.95690468      -6.59213362
O        4.70595853       6.95012397      -7.64770893
O        5.82601658       8.06897852      -5.67032074
C        7.28667087       6.61794149      -7.30079420
C        8.44321736       7.05889321      -6.64998981
C        9.68974817       6.86129175      -7.24820038
C        9.76939038       6.23678006      -8.49367383
Br      11.45610989       5.98931149      -9.31047484
C        8.61493873       5.80516001      -9.14819550
C        7.36639011       6.00022551      -8.55402873
H        3.43704777       0.39575935      -1.82420789
H        4.84745915       1.79439577      -3.24065468
H        1.68837855       4.78167626      -3.34138801
H        0.32915986       3.36909605      -1.94071718
H        2.75353943       6.65108374      -3.74948516
H        2.03556517       5.88007377      -5.20134457
H        3.09014872       7.27267044      -5.35261803
H        8.38617460       7.56273689      -5.68617062
H       10.58901119       7.20570805      -6.74296663
H        8.67685887       5.32706208     -10.12297126
H        6.46810413       5.67836894      -9.07751432
C       -1.79086601      -1.79086601      -1.79086601
C       -3.07746552      -1.38063923      -2.11813923
C       -3.87806072      -2.19097822      -2.93141368
C       -3.40168975      -3.42099492      -3.42881414
C       -2.10383700      -3.81587369      -3.08244653
C       -1.30275611      -3.00331664      -2.26705591
N       -4.25980192      -4.19951624      -4.26948715
N       -5.50754177      -3.72763202      -4.56252293
N       -6.12266049      -4.57250761      -5.37170554
C       -5.27617423      -5.60855436      -5.60196806
C       -4.08509259      -5.42317165      -4.91294112
C       -2.89632881      -6.30434287      -4.86750508
S       -5.69275661      -6.93519461      -6.62192964
O       -4.72406407      -6.87955010      -7.70017726
O       -5.76942372      -8.07137077      -5.72452135
C       -7.30276462      -6.61798906      -7.28465289
C       -8.43256528      -7.10192280      -6.61761230
C       -9.69747409      -6.92041477      -7.18135144
C       -9.82182980      -6.26884042      -8.40917405
Br     -11.53312527      -6.04296405      -9.17980691
C       -8.69399265      -5.79419601      -9.08010559
C       -7.42722447      -5.97302558      -8.52039430
H       -3.46978011      -0.43548182      -1.75175308
H       -4.88061447      -1.83398276      -3.16791237
H       -1.65539016      -4.74097796      -3.41507471
H       -0.29642844      -3.32940457      -2.01314009
H       -2.68575384      -6.62540632      -3.84294816
H       -2.02137676      -5.80331252      -5.29229423
H       -3.04620525      -7.21699594      -5.45223600
H       -8.34043369      -7.62680815      -5.66784027
H      -10.57592357      -7.29823180      -6.66353050
H       -8.79065669      -5.29490134     -10.04133418
H       -6.54966038      -5.61734907      -9.05697794
C       -1.79086601       1.79086601       1.79086601
C       -1.29807883       2.99189285       2.28627230
C       -2.11358606       3.79784486       3.08902170
C       -3.43254609       3.41366238       3.40529034
C       -3.90616836       2.19742612       2.89856275
C       -3.08793255       1.39045928       2.09473682
N       -4.22523625       4.28646034       4.21710871
N       -3.68114620       5.45935988       4.65719064
N       -4.57920814       6.12960548       5.35806002
C       -5.71498858       5.38649177       5.38521628
C       -5.53498337       4.20098384       4.68523815
C       -6.49923178       3.09832837       4.47061661
S       -7.14408365       5.90926710       6.19653012
O       -8.13496371       6.02528225       5.14354547
O       -7.30198694       4.97196843       7.29136047
C       -6.82626145       7.51863596       6.86050915
C       -6.34150997       7.64440830       8.16618211
C       -6.16594734       8.91547943       8.71781353
C       -6.48619248      10.04711210       7.96653969
Br      -6.26723589      11.76557980       8.72308053
C       -6.97914013       9.92217021       6.66698390
C       -7.15614169       8.65350733       6.11099533
H       -0.28618233       3.31503333       2.05579935
H       -1.69213397       4.73359024       3.45678539
H       -4.90106103       1.82131396       3.08906783
H       -3.47826797       0.45072322       1.70998191
H       -6.11651829       2.15829869       4.87929134
H       -6.72887883       2.98071296       3.40739172
H       -7.45135982       3.28912005       4.97495731
H       -6.10659128       6.76475073       8.76374009
H       -5.79062654       9.01331236       9.73374697
H       -7.23741296      10.80404209       6.08543715
H       -7.55847372       8.56160821       5.10390545
C        1.79086601      -1.79086601       1.79086601
C        1.28384216      -2.97059519       2.32180663
C        2.09927716      -3.77681672       3.12435875
C        3.43235996      -3.41423750       3.40490135
C        3.92030321      -2.21913405       2.86271997
C        3.10213908      -1.41186258       2.05912699
N        4.22379051      -4.28660230       4.21841250
N        3.66489645      -5.43827757       4.69452271
N        4.56350808      -6.11272441       5.39064115
C        5.71481636      -5.39349447       5.37838581
C        5.54467794      -4.21924352       4.65728390
C        6.52687203      -3.14201563       4.39928910
S        7.14963860      -5.92951687       6.17072540
O        8.11530651      -6.08842037       5.10006455
O        7.35021362      -4.97321883       7.24188340
C        6.81259094      -7.51761789       6.87519773
C        6.35316632      -7.60588891       8.19304514
C        6.16296434      -8.86119903       8.77507692
C        6.44358136     -10.01475528       8.04150763
Br       6.20505263     -11.71208171       8.83876188
C        6.91131116      -9.92736120       6.72962189
C        7.10280883      -8.67457942       6.14325610
H        0.26077860      -3.27689626       2.11934014
H        1.66636266      -4.69555087       3.52059607
H        4.92662321      -1.86035472       3.02446490
H        3.50367280      -0.48883203       1.64646827
H        6.17255426      -2.18577539       4.79577867
H        6.73628409      -3.05143870       3.32926073
H        7.48532243      -3.34245534       4.88765941
H        6.14933388      -6.70920499       8.77654324
H        5.80734996      -8.92989202       9.80044389
H        7.13878141     -10.82642148       6.16168932
H        7.48548692      -8.61220736       5.12629311
C       -0.00445707       0.01189536      -1.78238275
H       -0.66409135       0.67374010      -2.43557963
H        0.65740317      -0.63156657      -2.45157240
C       -0.90989263      -0.90692880      -0.91072765
C        0.90977584       0.90977584      -0.90977584
C       -0.00465871       1.77757030       0.00794375
H       -0.66225468       2.44313916      -0.64384735
H        0.64322798       2.43503045       0.67728295
C       -1.78241447       0.00034974      -0.00472694
H       -2.45427497      -0.65498947       0.64260836
H       -2.43311707       0.67328779      -0.65473579
C       -0.91132561       0.90220522       0.91563759
C       -0.01476271      -0.02253852       1.78660255
H       -0.67934791      -0.69751639       2.42135241
H        0.63392994       0.61504881       2.47327442
C        0.01484550      -1.77751727      -0.01636693
H        0.67870853      -2.42144646      -0.68295456
H       -0.62264859      -2.45592969       0.64226336
C        1.78714474       0.01002794       0.00389507
H        2.44202412       0.67113390       0.66197326
H        2.45385902      -0.65136977      -0.64189061
C        0.91606151      -0.90478549       0.90901405
