166
Properties=species:S:1:pos:R:3 pbc="F F F"
C        1.79103353       1.79103353      -1.79103353
C        2.91609541       1.24922376      -2.40982082
C        3.73728677       2.05540853      -3.21068573
C        3.45105107       3.41076911      -3.39376597
N        4.22666793       4.30042870      -4.16637978
C        5.37165627       4.06429277      -4.89131548
N        5.77980527       2.88836467      -5.27142465
S        7.17542857       2.95819845      -6.10680510
O        8.22085636       2.32569738      -5.32879163
O        6.92454871       2.59804174      -7.48607977
C        7.27879728       4.66456400      -5.95710639
C        6.24853320       5.19822066      -5.30195907
C        5.98897530       6.61490324      -4.95371953
C        8.46602714       5.25822144      -6.54105880
C        9.63349145       5.39477719      -5.77696291
C       10.76425943       6.00944650      -6.31796383
C       10.73414633       6.49996711      -7.62262409
C        9.57221361       6.37161161      -8.38150159
C        8.43816742       5.75775930      -7.84868140
C        2.29818643       3.91709664      -2.76404598
F        1.99384776       5.21630405      -2.92257935
C        1.47128385       3.13048516      -1.96797188
H        3.17178490       0.20018045      -2.27652927
H        4.60683775       1.59169866      -3.66718509
H        3.91950120       5.26187957      -4.05184519
H        5.07465825       6.96654927      -5.44175978
H        6.80756986       7.27066020      -5.26647885
H        5.87148130       6.72988727      -3.87144921
H        9.67728256       5.01496468      -4.75680529
H       11.66936844       6.10335972      -5.72226432
H       11.61881067       6.97643531      -8.03751275
H        7.53907099       5.66206838      -8.45429837
H        0.60033244       3.57467863      -1.49829049
C        9.53974439       6.88335727      -9.72711005
C        9.51255143       7.31194426     -10.85405713
Br       9.46858270       8.00493317     -12.67623526
C       -1.79103353      -1.79103353      -1.79103353
C       -1.29020254      -2.98996284      -2.29497460
C       -2.08945394      -3.79865625      -3.11527084
C       -3.39089689      -3.41522985      -3.44945941
N       -4.26032154      -4.15437168      -4.27878318
C       -4.05787678      -5.36009095      -4.90929679
N       -3.13071398      -6.21665862      -4.59222198
S       -3.16017434      -7.53950572      -5.54075207
O       -1.96050797      -7.56257422      -6.35226317
O       -3.57298812      -8.68196493      -4.75371718
C       -4.48446942      -6.95416288      -6.46183538
C       -4.93342041      -5.77121028      -6.04408224
C       -6.03205583      -4.93834777      -6.58719447
C       -4.89683402      -7.81459838      -7.55387498
C       -4.30924271      -7.67673165      -8.81925719
C       -4.73607413      -8.46890729      -9.88668835
C       -5.75869075      -9.39793840      -9.70010838
C       -6.34906310      -9.53156817      -8.44469553
C       -5.92767856      -8.74446003      -7.37246953
C       -3.86532699      -2.20486762      -2.90913444
F       -5.11391999      -1.80929258      -3.20951858
C       -3.08633433      -1.39169857      -2.09170798
H       -0.27661665      -3.30956706      -2.06231092
H       -1.65476848      -4.72052598      -3.49042703
H       -5.10135475      -3.63014280      -4.50172842
H       -6.82393852      -4.81759135      -5.84143743
H       -6.48047086      -5.38319249      -7.48104557
H       -5.66184403      -3.94625081      -6.86472293
H       -3.50671817      -6.95855166      -8.98378270
H       -4.26901356      -8.36281767     -10.86316125
H       -6.08505862     -10.01203529     -10.53566481
H       -6.39605701      -8.86214224      -6.39723849
H       -3.49904086      -0.46398952      -1.71027117
C       -7.40906220     -10.48736818      -8.25378132
C       -8.29681146     -11.28785069      -8.09389067
Br      -9.73222692     -12.58216320      -7.83536101
C       -1.79103353       1.79103353       1.79103353
C       -1.32774660       3.03657023       2.21082316
C       -2.12646323       3.84630348       3.03061432
C       -3.38931071       3.41812821       3.44814723
N       -4.25408334       4.15556188       4.28383119
C       -4.08271515       5.39992107       4.84462830
N       -3.21630932       6.28295911       4.44032615
S       -3.26691036       7.64907432       5.32444745
O       -2.03231972       7.77073741       6.07228824
O       -3.77424918       8.72916211       4.50525892
C       -4.51414539       7.04801534       6.33830694
C       -4.92234246       5.82526305       6.00110742
C       -5.95013533       4.96904546       6.63841728
C       -4.91646736       7.94168596       7.40715406
C       -4.26251730       7.89630524       8.64640901
C       -4.67700647       8.71994390       9.69471939
C       -5.75302197       9.58813489       9.51558066
C       -6.40905310       9.62965877       8.28661493
C       -6.00048397       8.81057129       7.23355286
C       -3.82743256       2.16061800       2.99127849
F       -5.03857012       1.72115689       3.37300414
C       -3.04856138       1.34559110       2.17558840
H       -0.34395222       3.39236884       1.91217356
H       -1.72135916       4.80577127       3.33859107
H       -5.05587797       3.60344024       4.57390776
H       -6.76984040       4.77285481       5.94027208
H       -6.37695826       5.43639465       7.53135600
H       -5.51738016       4.01117461       6.94426300
H       -3.41776700       7.22675877       8.80452676
H       -4.15878633       8.68587839      10.65032776
H       -6.06944465      10.22724705      10.33606703
H       -6.52054454       8.85620055       6.27869265
H       -3.43174702       0.38103753       1.86051701
C       -7.52392037      10.52253767       8.10375367
C       -8.45762171      11.27032374       7.95060736
Br      -9.96733781      12.47943059       7.70298273
C        1.79103353      -1.79103353       1.79103353
C        3.05423763      -1.34532191       2.17558045
C        3.87436583      -2.15437931       2.97463589
C        3.44779888      -3.41882673       3.38896054
N        4.20845783      -4.30670355       4.17831503
C        5.46782403      -4.15026416       4.70917634
N        6.07353726      -3.00797909       4.85807824
S        7.55598499      -3.17430627       5.51014088
O        8.54827023      -2.80579960       4.52127553
O        7.55749739      -2.60869183       6.84248099
C        7.41825676      -4.88245691       5.59975401
C        6.24376948      -5.33866740       5.16627605
C        5.75783863      -6.73481687       5.06494257
C        8.59279800      -5.56418544       6.10832393
C        9.60893162      -5.96621652       5.23008341
C       10.71912441      -6.66576612       5.70677923
C       10.81799845      -6.97647480       7.06226427
C        9.80548404      -6.58396187       7.93588089
C        8.69316805      -5.88369271       7.46774736
C        2.16023766      -3.82705420       2.99203719
F        1.71946916      -5.03689118       3.37637082
C        1.33271569      -3.03575308       2.20127212
H        3.41912527      -0.37056918       1.85880017
H        4.85322546      -1.76856600       3.24393004
H        3.76796622      -5.21954634       4.24571340
H        4.88750912      -6.88389707       5.71156110
H        6.52316356      -7.45806233       5.36348302
H        5.46960808      -6.96821146       4.03499823
H        9.55100263      -5.72989560       4.16815430
H       11.50794745      -6.96614519       5.02089984
H       11.68590462      -7.52049889       7.42635522
H        7.91192061      -5.58118672       8.16233041
H        0.35303837      -3.40389381       1.91636938
C        9.90533501      -6.90993492       9.33494177
C        9.98896020      -7.18293735      10.50665526
Br      10.12417506      -7.62435919      12.40121687
C       -0.00445707       0.01189536      -1.78238275
H       -0.66409135       0.67374010      -2.43557963
H        0.65740317      -0.63156657      -2.45157240
C       -0.90989263      -0.90692880      -0.91072765
C        0.90977584       0.90977584      -0.90977584
C       -0.00465871       1.77757030       0.00794375
H       -0.66225468       2.44313916      -0.64384735
H        0.64322798       2.43503045       0.67728295
C       -1.78241447       0.00034974      -0.00472694
H       -2.45427497      -0.65498947       0.64260836
H       -2.43311707       0.67328779      -0.65473579
C       -0.91132561       0.90220522       0.91563759
C       -0.01476271      -0.02253852       1.78660255
H       -0.67934791      -0.69751639       2.42135241
H        0.63392994       0.61504881       2.47327442
C        0.01484550      -1.77751727      -0.01636693
H        0.67870853      -2.42144646      -0.68295456
H       -0.62264859      -2.45592969       0.64226336
C        1.78714474       0.01002794       0.00389507
H        2.44202412       0.67113390       0.66197326
H        2.45385902      -0.65136977      -0.64189061
C        0.91606151      -0.90478549       0.90901405
