178
Properties=species:S:1:pos:R:3 pbc="F F F"
C        1.79189170       1.79189170      -1.79189170
C        2.23680509       3.02222390      -1.31323305
C        3.04338450       3.82615430      -2.11870108
C        3.40630080       3.39580934      -3.39736366
C        2.97132207       2.15309765      -3.87413606
C        2.14913145       1.35535313      -3.06741927
C        3.35142863       1.69653007      -5.19827160
C        2.78917145       1.83334256      -6.39873166
C        1.54745733       2.54639313      -6.77893143
C        3.63448384       1.05898544      -7.35347983
N        4.69330071       0.51388033      -6.82859730
S        4.80378474       0.77902146      -5.23031128
O        5.93648378       1.64010534      -4.96521653
O        4.61567948      -0.47435689      -4.53015532
N        3.28591659       0.95742559      -8.68473603
C        3.67457865      -0.02658693      -9.61952702
C        3.28498438       0.13256114     -10.95764183
C        3.64919589      -0.79976118     -11.93417328
C        4.42874340      -1.90566816     -11.59349275
C        4.85713146      -2.08468533     -10.27416082
C        5.70664110      -3.25077276      -9.84984555
C        4.47359539      -1.13458734      -9.30620633
H        1.96774814       3.35984192      -0.31560714
H        3.39947632       4.78370034      -1.74652329
H        4.04967759       4.03022034      -4.00526208
H        1.80618098       0.38484363      -3.42193206
H        1.04338255       2.98212295      -5.91058479
H        0.84227057       1.86354109      -7.26258124
H        1.77433812       3.36051616      -7.47433178
H        2.50304488       1.51215686      -9.00666319
H        2.68840715       0.98923128     -11.26200789
H        3.32135567      -0.65057298     -12.95997732
H        5.95491655      -3.20094301      -8.78377825
H        6.65241564      -3.25695909     -10.40091004
H        5.17433602      -4.19261783     -10.01586406
H        4.80688496      -1.29775369      -8.28511757
C        4.76492228      -2.83532776     -12.64054422
C        5.04647209      -3.61391768     -13.51744983
Br       5.50171432      -4.87283172     -14.93533203
C       -1.79189170      -1.79189170      -1.79189170
C       -1.77724627      -1.62064788      -3.17436789
C       -2.58174431      -2.42750821      -3.97898736
C       -3.39416047      -3.40548475      -3.39982858
C       -3.39909496      -3.58798394      -2.01147687
C       -2.60059517      -2.76541953      -1.20588915
C       -4.23454153      -4.60752676      -1.40416201
C       -5.48411464      -4.59599071      -0.94114031
C       -6.46722089      -3.48793100      -0.91763000
C       -5.73470915      -5.94856630      -0.36367366
N       -4.75073233      -6.79017930      -0.49486671
S       -3.45877662      -6.13003385      -1.22430701
O       -3.27496461      -6.74559899      -2.52124205
O       -2.37771221      -6.02720922      -0.26655648
N       -6.93451372      -6.24406289       0.25049841
C       -7.20870446      -7.25542773       1.19661345
C       -8.53693576      -7.44442945       1.60617786
C       -8.87592649      -8.43783195       2.53015045
C       -7.89118458      -9.27734579       3.05196238
C       -6.55960758      -9.13531552       2.64831614
C       -5.45751286     -10.01649607       3.16829504
C       -6.24104225      -8.12389984       1.71972771
H       -1.14017177      -0.86920167      -3.63382376
H       -2.56785571      -2.30282315      -5.05902109
H       -4.00324099      -4.03632513      -4.04559388
H       -2.59005496      -2.89757157      -0.12533013
H       -6.04979898      -2.56161925      -1.32467206
H       -6.79300153      -3.28193097       0.10653960
H       -7.34638059      -3.74699937      -1.51580609
H       -7.66970643      -5.55050414       0.19834563
H       -9.33244309      -6.81758187       1.21037865
H       -9.91401303      -8.54992022       2.83317324
H       -4.49209443      -9.76231069       2.71665333
H       -5.65933427     -11.06521661       2.92818429
H       -5.35106751      -9.89764224       4.25112750
H       -5.19951299      -8.02247506       1.42773922
C       -8.29987377     -10.27589260       4.00562763
C       -8.64215096     -11.11217556       4.80432228
Br      -9.19558423     -12.46437437       6.09574398
C       -1.79189170       1.79189170       1.79189170
C       -2.00151319       1.44579483       3.12495401
C       -2.80572832       2.25259489       3.92991668
C       -3.39354811       3.40454843       3.40137726
C       -3.17210806       3.76101467       2.06543306
C       -2.37563455       2.93980903       1.25646027
C       -3.77311278       4.96069775       1.51241977
C       -4.93272432       5.19106922       0.89745213
C       -6.03477039       4.25081116       0.58720033
C       -4.92195195       6.62812946       0.49686771
N       -3.86871402       7.29316358       0.87390074
S       -2.79198008       6.36374772       1.65738968
O       -2.72298977       6.77567620       3.04313968
O       -1.60444129       6.22666550       0.84037112
N       -5.97155404       7.17166699      -0.21514282
C       -5.97344274       8.32436334      -1.03028734
C       -7.19251399       8.75616744      -1.57349408
C       -7.26349775       9.89790131      -2.37779108
C       -6.11427157      10.64387817      -2.64158175
C       -4.88507405      10.25841817      -2.09688526
C       -3.61568664      11.02787442      -2.33784718
C       -4.83709590       9.10141273      -1.29329425
H       -1.53936823       0.55695333       3.54687564
H       -2.96593277       1.99077865       4.97298854
H       -4.00522437       4.03030670       4.04962893
H       -2.19043761       3.20544460       0.21707445
H       -5.80270108       3.22921858       0.90417063
H       -6.23079948       4.22672237      -0.48912896
H       -6.95175974       4.55740926       1.10001705
H       -6.78869950       6.59215586      -0.35899043
H       -8.11059845       8.20718387      -1.37813601
H       -8.22330146      10.19825592      -2.79079738
H       -2.76699433      10.57983096      -1.80907350
H       -3.71531538      12.05565144      -1.97460023
H       -3.36801971      11.03352983      -3.40396728
H       -3.87094374       8.81242019      -0.88911510
C       -6.24863380      11.80463170      -3.48312677
C       -6.36116217      12.77676279      -4.18792072
Br      -6.54311102      14.34861654      -5.32751293
C        1.79189170      -1.79189170       1.79189170
C        1.50204182      -3.14830632       1.92191391
C        2.30887254      -3.95314670       2.72622065
C        3.40490638      -3.40084621       3.39372120
C        3.70551219      -2.04049426       3.25254933
C        2.88375149      -1.23270375       2.45544862
C        4.84735370      -1.46219467       3.93668192
C        4.99301220      -0.89463343       5.13360004
C        3.98831598      -0.68288034       6.20158557
C        6.40768449      -0.42740371       5.21186091
N        7.13877764      -0.72101206       4.17598863
S        6.30005469      -1.49337303       3.01968976
O        6.78207056      -2.85336126       2.90637383
O        6.17870052      -0.62650603       1.86627136
N        6.86617537       0.25696998       6.31887281
C        7.97625729       1.12392701       6.41518846
C        8.32362555       1.62637811       7.67793992
C        9.42007780       2.47861990       7.84215009
C       10.20504737       2.83284203       6.74436265
C        9.90446244       2.33156193       5.47370645
C       10.71957998       2.66998287       4.25611677
C        8.79166587       1.47818636       5.33173488
H        0.65743833      -3.58810942       1.39764945
H        2.09122494      -5.01388466       2.82459036
H        4.03242225      -4.04835732       4.00438043
H        3.10655588      -0.17424222       2.33215856
H        2.99539700      -1.03542343       5.90526986
H        3.90246798       0.38027006       6.44619498
H        4.27653242      -1.22509473       7.10755890
H        6.24283350       0.33346899       7.11250043
H        7.74263190       1.36093209       8.55794650
H        9.65476274       2.85772397       8.83372124
H       10.33802614       2.16304980       3.36277545
H       11.75813363       2.35063446       4.38886741
H       10.68460482       3.74604717       4.05902461
H        8.56818118       1.10872992       4.33479757
C       11.31569662       3.72003241       6.97447453
C       12.24586537       4.46305435       7.16719322
Br      13.74986956       5.66445799       7.47880305
C       -0.00445707       0.01189536      -1.78238275
H       -0.66409135       0.67374010      -2.43557963
H        0.65740317      -0.63156657      -2.45157240
C       -0.90989263      -0.90692880      -0.91072765
C        0.90977584       0.90977584      -0.90977584
C       -0.00465871       1.77757030       0.00794375
H       -0.66225468       2.44313916      -0.64384735
H        0.64322798       2.43503045       0.67728295
C       -1.78241447       0.00034974      -0.00472694
H       -2.45427497      -0.65498947       0.64260836
H       -2.43311707       0.67328779      -0.65473579
C       -0.91132561       0.90220522       0.91563759
C       -0.01476271      -0.02253852       1.78660255
H       -0.67934791      -0.69751639       2.42135241
H        0.63392994       0.61504881       2.47327442
C        0.01484550      -1.77751727      -0.01636693
H        0.67870853      -2.42144646      -0.68295456
H       -0.62264859      -2.45592969       0.64226336
C        1.78714474       0.01002794       0.00389507
H        2.44202412       0.67113390       0.66197326
H        2.45385902      -0.65136977      -0.64189061
C        0.91606151      -0.90478549       0.90901405
