170
Properties=species:S:1:pos:R:3 pbc="F F F"
C        1.79189170       1.79189170      -1.79189170
C        2.23680509       3.02222390      -1.31323305
C        3.04338450       3.82615430      -2.11870108
C        3.40630080       3.39580934      -3.39736366
C        2.97132207       2.15309765      -3.87413606
C        2.14913145       1.35535313      -3.06741927
C        3.35142863       1.69653007      -5.19827160
C        2.78917145       1.83334256      -6.39873166
C        1.54745733       2.54639313      -6.77893143
C        3.63448384       1.05898544      -7.35347983
N        4.69330071       0.51388033      -6.82859730
S        4.80378474       0.77902146      -5.23031128
O        5.93648378       1.64010534      -4.96521653
O        4.61567948      -0.47435689      -4.53015532
N        3.28591659       0.95742559      -8.68473603
C        3.67457865      -0.02658693      -9.61952702
C        3.28498438       0.13256114     -10.95764183
C        3.64919589      -0.79976118     -11.93417328
C        4.42874340      -1.90566816     -11.59349275
Br       4.87193071      -3.13124588     -12.97382911
C        4.85713146      -2.08468533     -10.27416082
C        5.70664110      -3.25077276      -9.84984555
C        4.47359539      -1.13458734      -9.30620633
H        1.96774814       3.35984192      -0.31560714
H        3.39947632       4.78370034      -1.74652329
H        4.04967759       4.03022034      -4.00526208
H        1.80618098       0.38484363      -3.42193206
H        1.04338255       2.98212295      -5.91058479
H        0.84227057       1.86354109      -7.26258124
H        1.77433812       3.36051616      -7.47433178
H        2.50304488       1.51215686      -9.00666319
H        2.68840715       0.98923128     -11.26200789
H        3.32135567      -0.65057298     -12.95997732
H        5.95491655      -3.20094301      -8.78377825
H        6.65241564      -3.25695909     -10.40091004
H        5.17433602      -4.19261783     -10.01586406
H        4.80688496      -1.29775369      -8.28511757
C       -1.79189170      -1.79189170      -1.79189170
C       -1.86813044      -1.54355576      -3.16057583
C       -2.67250441      -2.35040161      -3.96533387
C       -3.39386487      -3.40513278      -3.40047615
C       -3.30697620      -3.66444232      -2.02713727
C       -2.50939617      -2.84235050      -1.22015717
C       -4.04732642      -4.76352224      -1.43538164
C       -5.26620663      -4.85124945      -0.90378958
C       -6.30625604      -3.80595939      -0.76056646
C       -5.40687905      -6.24620850      -0.39386156
N       -4.38709659      -7.01989270      -0.62878905
S       -3.17895448      -6.24539413      -1.38876888
O       -3.03784462      -6.77608807      -2.72787296
O       -2.05080602      -6.13251287      -0.48815901
N       -6.55020781      -6.64543008       0.26755968
C       -6.71166650      -7.72216220       1.16630996
C       -8.00095245      -8.01142745       1.63719255
C       -8.22929898      -9.07283805       2.51852904
C       -7.17045753      -9.88065723       2.93454678
Br      -7.56039205     -11.29426230       4.14014040
C       -5.87487960      -9.63834138       2.46661402
C       -4.69686345     -10.48068558       2.87183514
C       -5.66816361      -8.55992179       1.58287102
H       -1.30191229      -0.73157585      -3.60970906
H       -2.72912014      -2.16531600      -5.03526382
H       -4.00389469      -4.03386410      -4.04740121
H       -2.42798605      -3.03347077      -0.15149985
H       -5.96560036      -2.83551967      -1.13497025
H       -6.58216455      -3.67668796       0.29045962
H       -7.20333091      -4.08266831      -1.32318683
H       -7.32458314      -5.99449578       0.29721398
H       -8.85195407      -7.41144522       1.32375298
H       -9.23993093      -9.26245619       2.87162712
H       -3.77529690     -10.14545557       2.38300068
H       -4.85389477     -11.52450290       2.58203109
H       -4.53367140     -10.41610751       3.95219665
H       -4.65285881      -8.38134257       1.23995255
C       -1.79189170       1.79189170       1.79189170
C       -1.51796199       1.90083850       3.15346155
C       -2.32290510       2.70764409       3.95769069
C       -3.39546240       3.40622331       3.39778809
C       -3.66318052       3.30858873       2.02678653
C       -2.86110346       2.48543047       1.22536992
C       -4.77078663       4.03804276       1.43740091
C       -6.05220281       3.73142497       1.23761789
C       -6.78833849       2.49486675       1.58957665
C       -6.65509370       4.88433626       0.50751915
N       -5.84806650       5.88465463       0.30305720
S       -4.34991467       5.60131926       0.86188355
O       -4.08129568       6.48170690       1.97880307
O       -3.44121952       5.49019663      -0.25993824
N       -7.97354419       4.85291858       0.10161543
C       -8.59237262       5.59956419      -0.92441807
C       -9.98055590       5.48446650      -1.08983505
C      -10.65487085       6.20750943      -2.07877230
C       -9.95347295       7.07740128      -2.91430624
Br     -10.93898849       8.01442112      -4.23889566
C       -8.57226789       7.23728892      -2.76294985
C       -7.76532514       8.16701105      -3.62662231
C       -7.91339823       6.49440095      -1.76258480
H       -0.67906804       1.36901567       3.59511350
H       -2.10832721       2.80195007       5.01942268
H       -4.00282679       4.04355943       4.03877379
H       -3.05362137       2.40223419       0.15710110
H       -6.13593876       1.74776569       2.05238584
H       -7.23020518       2.04087821       0.69730951
H       -7.59140138       2.71927733       2.29850734
H       -8.53922808       4.07249307       0.41014379
H      -10.56148177       4.82630368      -0.44813914
H      -11.73000907       6.08647381      -2.18572287
H       -6.70816583       8.16804809      -3.33846212
H       -8.12756932       9.19507202      -3.52627475
H       -7.81610044       7.85640093      -4.67491912
H       -6.83883503       6.62413628      -1.66872248
C        1.79189170      -1.79189170       1.79189170
C        1.52399449      -3.15526511       1.89300244
C        2.33083392      -3.96006120       2.69734477
C        3.40502968      -3.40064845       3.39379567
C        3.68380433      -2.03295250       3.28179895
C        2.86186109      -1.22559643       2.48444633
C        4.80304011      -1.44704386       3.99614633
C        4.91762917      -0.89841032       5.20520618
C        3.89080667      -0.72329110       6.25868412
C        6.32217932      -0.40798653       5.31678326
N        7.07637897      -0.67029022       4.28910914
S        6.27187515      -1.43649901       3.10474332
O        6.77992125      -2.78562090       2.97626350
O        6.15529863      -0.55149979       1.96467950
N        6.74899668       0.26449196       6.44357348
C        7.84162298       1.14887241       6.57476816
C        8.15786665       1.63477104       7.85209174
C        9.23594240       2.50299446       8.05066004
C       10.03355686       2.89036326       6.97337438
Br      11.47116431       4.07978914       7.32313878
C        9.76419932       2.40659381       5.68900145
C       10.59432798       2.78082512       4.49221103
C        8.66941572       1.53655552       5.51235417
H        0.69664499      -3.60036854       1.34618366
H        2.13040872      -5.02602447       2.77326676
H        4.03319604      -4.04785339       4.00411057
H        3.06791765      -0.16137531       2.38366370
H        2.90965003      -1.08781065       5.93862961
H        3.78179165       0.33367514       6.52027639
H        4.17274274      -1.27641862       7.16002470
H        6.11061298       0.31594804       7.22719999
H        7.56639234       1.34359185       8.71684582
H        9.44647352       2.86843974       9.05272623
H       10.23753090       2.28327510       3.58349599
H       11.63592003       2.47737047       4.63781703
H       10.54366223       3.85945012       4.31337014
H        8.47000352       1.18104615       4.50529146
C       -0.00445707       0.01189536      -1.78238275
H       -0.66409135       0.67374010      -2.43557963
H        0.65740317      -0.63156657      -2.45157240
C       -0.90989263      -0.90692880      -0.91072765
C        0.90977584       0.90977584      -0.90977584
C       -0.00465871       1.77757030       0.00794375
H       -0.66225468       2.44313916      -0.64384735
H        0.64322798       2.43503045       0.67728295
C       -1.78241447       0.00034974      -0.00472694
H       -2.45427497      -0.65498947       0.64260836
H       -2.43311707       0.67328779      -0.65473579
C       -0.91132561       0.90220522       0.91563759
C       -0.01476271      -0.02253852       1.78660255
H       -0.67934791      -0.69751639       2.42135241
H        0.63392994       0.61504881       2.47327442
C        0.01484550      -1.77751727      -0.01636693
H        0.67870853      -2.42144646      -0.68295456
H       -0.62264859      -2.45592969       0.64226336
C        1.78714474       0.01002794       0.00389507
H        2.44202412       0.67113390       0.66197326
H        2.45385902      -0.65136977      -0.64189061
C        0.91606151      -0.90478549       0.90901405
