162
Properties=species:S:1:pos:R:3 pbc="F F F"
C        1.78741412       1.78741412      -1.78741412
C        3.16437252       1.64702347      -1.77869888
C        3.93223814       2.45582665      -2.61810290
C        3.30879503       3.37150241      -3.46254300
N        1.96672584       3.53980419      -3.44619388
C        1.23784218       2.74574770      -2.61969455
N        3.98318659       4.16718835      -4.39346264
C        5.12399228       3.81916499      -5.08120244
N        5.99691641       2.95314277      -4.65178830
S        7.19769419       2.69887467      -5.71327563
O        8.43216939       3.22042442      -5.16520809
O        7.09555419       1.34587338      -6.21885232
C        6.54186957       3.80955025      -6.84839496
C        5.43399186       4.41045621      -6.41643673
C        4.59369988       5.43174102      -7.08467347
C        7.29139477       3.87778069      -8.08900925
C        6.94982463       3.03258484      -9.15466738
C        7.69073460       3.05128051     -10.33706424
C        8.77042329       3.92309297     -10.46804640
C        9.09937561       4.77796897      -9.41711262
C        8.36436158       4.76501511      -8.23101088
H        3.65450888       0.91746136      -1.14033197
H        5.01110842       2.34799025      -2.59397316
H        0.16470858       2.90920382      -2.66100114
H        3.28344897       4.72481922      -4.86983309
H        3.58110494       5.05205384      -7.25272557
H        5.00400087       5.72690374      -8.05607709
H        4.52665269       6.33498904      -6.46830726
H        6.12446122       2.32763491      -9.06176489
H        7.43555770       2.37426528     -11.14911463
H        9.35243915       3.92172169     -11.38616694
H        8.64608424       5.42352226      -7.41158554
C       10.21814144       5.67443150      -9.55245650
C       11.15510781       6.42521886      -9.66580701
Br      12.67010320       7.63917854      -9.84908519
C       -1.78741412      -1.78741412      -1.78741412
C       -3.15018937      -1.56256555      -1.87733996
C       -3.91634291      -2.37587958      -2.71394521
C       -3.30346360      -3.38129870      -3.45807814
N       -1.97879863      -3.63016804      -3.34375724
C       -1.25164249      -2.82999388      -2.52164806
N       -3.97004902      -4.19326263      -4.38052592
C       -5.04133569      -3.82162003      -5.16140398
N       -5.88048226      -2.87747842      -4.84388680
S       -6.99470416      -2.61996286      -5.99517747
O       -8.29191308      -3.02787841      -5.49801040
O       -6.77353699      -1.31171527      -6.57502762
C       -6.34449019      -3.84058127      -7.01474333
C       -5.30683897      -4.47878649      -6.47525935
C       -4.49569310      -5.59117334      -7.02324793
C       -7.01936715      -3.94365046      -8.29516711
C       -6.55857108      -3.19245537      -9.38605040
C       -7.22520067      -3.24291256     -10.61096612
C       -8.34949024      -4.05355604     -10.75851638
C       -8.79744886      -4.81612856      -9.68087978
C       -8.13729399      -4.77078630      -8.45230728
H       -3.62982336      -0.76415569      -1.31832317
H       -4.98530290      -2.20072948      -2.76703945
H       -0.19097777      -3.06131063      -2.48262513
H       -3.28035605      -4.82270100      -4.77504422
H       -3.45205085      -5.28610365      -7.14772983
H       -4.86405461      -5.92347207      -7.99945502
H       -4.52575409      -6.45461365      -6.34958126
H       -5.69615344      -2.53489305      -9.28281453
H       -6.87699668      -2.63734710     -11.44459383
H       -8.87276263      -4.07649995     -11.71106520
H       -8.51117957      -5.35580803      -7.61420445
C       -9.96200184      -5.64921123      -9.83381636
C      -10.93731497      -6.34691797      -9.96190074
Br     -12.51431381      -7.47505076     -10.16900235
C       -1.78741412       1.78741412       1.78741412
C       -1.24432448       2.83526670       2.51050370
C       -2.08896681       3.63242188       3.28477901
C       -3.45869687       3.38005472       3.30408885
N       -3.98866486       2.33355730       2.63050176
C       -3.14945240       1.56776991       1.88606212
N       -4.39315979       4.16786178       3.98281601
C       -4.31292530       5.52751797       4.18391644
N       -3.19431125       6.19401139       4.21352484
S       -3.42368448       7.79004513       4.39611488
O       -2.92863456       8.19370407       5.69546326
O       -3.01840725       8.46243277       3.17943987
C       -5.13315457       7.62358542       4.44307479
C       -5.54072441       6.35770373       4.36245666
C       -6.91603130       5.80673636       4.38734671
C       -5.83463764       8.89063643       4.53291064
C       -6.22112357       9.55565843       3.36029485
C       -6.85326618      10.79790801       3.42790516
C       -7.11498988      11.37900156       4.66757123
C       -6.74920540      10.71036891       5.83488289
C       -6.11584608       9.46832842       5.77621307
H       -0.18034595       3.05210119       2.47985507
H       -1.65208751       4.44238180       3.85860251
H       -3.63024451       0.75397920       1.35068983
H       -5.30485974       3.75748718       3.81575434
H       -7.14500939       5.29157321       3.44930175
H       -7.66782764       6.59022125       4.52893281
H       -7.02715536       5.09232573       5.21046791
H       -6.00332823       9.12842218       2.38211060
H       -7.12639850      11.31923936       2.51329975
H       -7.59414266      12.35372580       4.71245932
H       -5.81753059       8.96808761       6.69557384
C       -7.01599904      11.31453773       7.11449267
C       -7.23943871      11.82052912       8.18616586
Br      -7.60072176      12.63867439       9.91897077
C        1.78741412      -1.78741412       1.78741412
C        1.25245450      -2.86358263       2.47405775
C        2.09758695      -3.65914297       3.24943778
C        3.46036508      -3.37653728       3.30593808
N        3.98112741      -2.30315768       2.66843883
C        3.14147275      -1.53951337       1.92229831
N        4.39720590      -4.15853478       3.98809690
C        4.34378032      -5.52391979       4.15665961
N        3.24041841      -6.21591388       4.14551519
S        3.50229660      -7.81016302       4.29738487
O        2.98756265      -8.25465298       5.57558627
O        3.14007423      -8.46331880       3.05688685
C        5.20599385      -7.60641379       4.38740715
C        5.58603298      -6.33016371       4.34468811
C        6.94738749      -5.74911546       4.41361142
C        5.93425269      -8.85909530       4.46483673
C        6.36222267      -9.48809162       3.28676256
C        7.02110617     -10.71703294       3.34094024
C        7.26817996     -11.32046756       4.57291515
C        6.86093693     -10.68727468       5.74624558
C        6.20064103      -9.45877547       5.70097106
H        0.19470685      -3.10353486       2.41406050
H        1.66666567      -4.49171749       3.79468867
H        3.61533092      -0.70300710       1.41657552
H        5.30274742      -3.72401823       3.85133562
H        7.18549332      -5.20747972       3.49291129
H        7.71364050      -6.51854046       4.55480075
H        7.02349538      -5.05151845       5.25493516
H        6.15671305      -9.04346416       2.31368381
H        7.32667011     -11.21090095       2.42136655
H        7.76850718     -12.28494086       4.60687974
H        5.87028538      -8.98666305       6.62424362
C        7.11271051     -11.31457784       7.01774109
C        7.32357088     -11.83994424       8.08261857
Br       7.66451427     -12.68941727       9.80443539
C       -0.00445707       0.01189536      -1.78238275
H       -0.66409135       0.67374010      -2.43557963
H        0.65740317      -0.63156657      -2.45157240
C       -0.90989263      -0.90692880      -0.91072765
C        0.90977584       0.90977584      -0.90977584
C       -0.00465871       1.77757030       0.00794375
H       -0.66225468       2.44313916      -0.64384735
H        0.64322798       2.43503045       0.67728295
C       -1.78241447       0.00034974      -0.00472694
H       -2.45427497      -0.65498947       0.64260836
H       -2.43311707       0.67328779      -0.65473579
C       -0.91132561       0.90220522       0.91563759
C       -0.01476271      -0.02253852       1.78660255
H       -0.67934791      -0.69751639       2.42135241
H        0.63392994       0.61504881       2.47327442
C        0.01484550      -1.77751727      -0.01636693
H        0.67870853      -2.42144646      -0.68295456
H       -0.62264859      -2.45592969       0.64226336
C        1.78714474       0.01002794       0.00389507
H        2.44202412       0.67113390       0.66197326
H        2.45385902      -0.65136977      -0.64189061
C        0.91606151      -0.90478549       0.90901405
