154
Properties=species:S:1:pos:R:3 pbc="F F F"
C        1.78741412       1.78741412      -1.78741412
C        3.16437252       1.64702347      -1.77869888
C        3.93223814       2.45582665      -2.61810290
C        3.30879503       3.37150241      -3.46254300
N        1.96672584       3.53980419      -3.44619388
C        1.23784218       2.74574770      -2.61969455
N        3.98318659       4.16718835      -4.39346264
C        5.12399228       3.81916499      -5.08120244
N        5.99691641       2.95314277      -4.65178830
S        7.19769419       2.69887467      -5.71327563
O        8.43216939       3.22042442      -5.16520809
O        7.09555419       1.34587338      -6.21885232
C        6.54186957       3.80955025      -6.84839496
C        5.43399186       4.41045621      -6.41643673
C        4.59369988       5.43174102      -7.08467347
C        7.29139477       3.87778069      -8.08900925
C        6.94982463       3.03258484      -9.15466738
C        7.69073460       3.05128051     -10.33706424
C        8.77042329       3.92309297     -10.46804640
C        9.09937561       4.77796897      -9.41711262
Br      10.56819674       5.95492940      -9.59480482
C        8.36436158       4.76501511      -8.23101088
H        3.65450888       0.91746136      -1.14033197
H        5.01110842       2.34799025      -2.59397316
H        0.16470858       2.90920382      -2.66100114
H        3.28344897       4.72481922      -4.86983309
H        3.58110494       5.05205384      -7.25272557
H        5.00400087       5.72690374      -8.05607709
H        4.52665269       6.33498904      -6.46830726
H        6.12446122       2.32763491      -9.06176489
H        7.43555770       2.37426528     -11.14911463
H        9.35243915       3.92172169     -11.38616694
H        8.64608424       5.42352226      -7.41158554
C       -1.78741412      -1.78741412      -1.78741412
C       -3.14836937      -1.88630544      -1.55542007
C       -3.92248227      -2.68370224      -2.39998319
C       -3.32588505      -3.34762821      -3.46932717
N       -1.99062184      -3.28551518      -3.67658690
C       -1.25456353      -2.50725878      -2.84146213
N       -4.02637530      -4.10305804      -4.41440423
C       -5.30584486      -3.85841011      -4.86010474
N       -6.20907708      -3.22520173      -4.16756867
S       -7.59705032      -3.02797084      -4.98482333
O       -8.63134128      -3.82595924      -4.36050137
O       -7.77970626      -1.61855517      -5.26201845
C       -6.99012160      -3.83430995      -6.37538323
C       -5.74964363      -4.29396720      -6.21727397
C       -4.89637727      -5.04944482      -7.16429229
C       -7.92202342      -3.84860820      -7.48755309
C       -7.89307311      -2.81218383      -8.43181991
C       -8.81384503      -2.78517352      -9.48006080
C       -9.76212369      -3.79976800      -9.59967098
C       -9.77987975      -4.84134453      -8.67323292
Br     -11.07115820      -6.21284891      -8.83392385
C       -8.86339131      -4.87549222      -7.62150403
H       -3.62314726      -1.35121016      -0.73794478
H       -4.98555442      -2.76580043      -2.20171697
H       -0.19194534      -2.47785881      -3.06510939
H       -3.34464173      -4.45836769      -5.07509185
H       -3.99307674      -4.48259191      -7.41021569
H       -5.41891043      -5.26618969      -8.10188158
H       -4.59514678      -6.00774717      -6.72705505
H       -7.17497620      -1.99801219      -8.34087263
H       -8.80153849      -1.96414281     -10.19325631
H      -10.48593398      -3.76445064     -10.40994316
H       -8.90299841      -5.68407268      -6.89412096
C       -1.78741412       1.78741412       1.78741412
C       -1.23321858       2.57640975       2.78046655
C       -2.07180899       3.38659914       3.54775956
C       -3.44121289       3.40784453       3.29378302
N       -3.99220025       2.60952162       2.35100205
C       -3.15959601       1.82586664       1.61782179
N       -4.34945647       4.24216581       3.95221529
C       -4.08973009       5.50843000       4.42619962
N       -2.90525572       5.92887516       4.76771660
S       -2.90276856       7.48740082       5.21967512
O       -2.61292437       7.56899107       6.63588646
O       -2.16288070       8.25641502       4.24098416
C       -4.59211352       7.65378989       4.95391138
C       -5.17669627       6.52271903       4.56146950
C       -6.60124220       6.25540850       4.25346367
C       -5.08157526       9.00182981       5.17477964
C       -5.11713863       9.91170363       4.10823459
C       -5.53923552      11.22579411       4.31404972
C       -5.94056579      11.63698898       5.58400789
C       -5.92456915      10.72854489       6.64134316
Br      -6.46325028      11.29045441       8.36422626
C       -5.50301372       9.41296133       6.44441252
H       -0.16303725       2.58257062       2.96669434
H       -1.62982857       3.99069437       4.33254888
H       -3.65219858       1.22040720       0.86230776
H       -5.26517943       4.05123034       3.56169150
H       -6.72277464       5.95498125       3.20812845
H       -7.22829251       7.13727846       4.42141074
H       -6.98641372       5.45224218       4.89129310
H       -4.78445800       9.61528633       3.11411668
H       -5.53916454      11.93246669       3.48730638
H       -6.25386446      12.66610980       5.74035352
H       -5.47622843       8.72097283       7.28399079
C        1.78741412      -1.78741412       1.78741412
C        1.25371162      -2.46891351       2.86746975
C        2.08916477      -3.28390194       3.63310098
C        3.43306521      -3.41765115       3.29212407
N        3.96770821      -2.72335118       2.26166453
C        3.13886709      -1.93296087       1.53145648
N        4.32864105      -4.26866932       3.94652720
C        4.02042341      -5.47985998       4.52407632
N        2.83781598      -5.79299411       4.97103739
S        2.76497257      -7.31456935       5.53030257
O        2.57037590      -7.28274532       6.96468068
O        1.90955489      -8.09226301       4.65846198
C        4.41700997      -7.61598756       5.16681726
C        5.04544960      -6.55679525       4.65863994
C        6.45934416      -6.41072083       4.24004938
C        4.83143327      -8.97765538       5.44909607
C        4.73251230      -9.95565797       4.44890659
C        5.08104911     -11.27979725       4.71823300
C        5.54261020     -11.63407424       5.98487822
C        5.66026863     -10.65946909       6.97471948
Br       6.28042221     -11.14373728       8.69377146
C        5.31299119      -9.33329986       6.71409651
H        0.20111189      -2.38785062       3.12333970
H        1.66467038      -3.80285354       4.48554791
H        3.61589131      -1.41428238       0.70473985
H        5.22527453      -4.16836041       3.48446632
H        6.52672547      -6.18863807       3.17052080
H        7.03753478      -7.32147534       4.42797158
H        6.94002793      -5.59649014       4.79343093
H        4.35110137      -9.70238034       3.46037930
H        4.97676863     -12.03733722       3.94483176
H        5.79804139     -12.67017151       6.19211489
H        5.39047731      -8.58765374       7.50306100
C       -0.00445707       0.01189536      -1.78238275
H       -0.66409135       0.67374010      -2.43557963
H        0.65740317      -0.63156657      -2.45157240
C       -0.90989263      -0.90692880      -0.91072765
C        0.90977584       0.90977584      -0.90977584
C       -0.00465871       1.77757030       0.00794375
H       -0.66225468       2.44313916      -0.64384735
H        0.64322798       2.43503045       0.67728295
C       -1.78241447       0.00034974      -0.00472694
H       -2.45427497      -0.65498947       0.64260836
H       -2.43311707       0.67328779      -0.65473579
C       -0.91132561       0.90220522       0.91563759
C       -0.01476271      -0.02253852       1.78660255
H       -0.67934791      -0.69751639       2.42135241
H        0.63392994       0.61504881       2.47327442
C        0.01484550      -1.77751727      -0.01636693
H        0.67870853      -2.42144646      -0.68295456
H       -0.62264859      -2.45592969       0.64226336
C        1.78714474       0.01002794       0.00389507
H        2.44202412       0.67113390       0.66197326
H        2.45385902      -0.65136977      -0.64189061
C        0.91606151      -0.90478549       0.90901405
