133
Properties=species:S:1:pos:R:3 pbc="F F F"
C        0.00000000       0.00000000       0.00000000
C        0.87751010       0.87751010      -0.87751010
C        2.25446850       0.73711945      -0.86879486
C        3.02233412       1.54592263      -1.70819888
C        2.39889100       2.46159838      -2.55263898
N        1.05682182       2.62990017      -2.53628986
C        0.32793815       1.83584368      -1.70979053
N        3.07328256       3.25728432      -3.48355862
C        4.21408826       2.90926097      -4.17129841
N        5.08701238       2.04323875      -3.74188428
S        6.28779017       1.78897064      -4.80337161
O        7.52226536       2.31052040      -4.25530406
O        6.18565016       0.43596935      -5.30894830
C        5.63196555       2.89964623      -5.93849093
C        4.52408784       3.50055219      -5.50653270
C        3.68379586       4.52183699      -6.17476945
C        6.38149075       2.96787667      -7.17910523
C        6.03992061       2.12268082      -8.24476336
C        6.78083058       2.14137649      -9.42716022
C        7.86051926       3.01318895      -9.55814237
C        8.18947159       3.86806495      -8.50720859
Br       9.65829272       5.04502537      -8.68490079
C        7.45445756       3.85511108      -7.32110685
H        2.74460485       0.00755734      -0.23042795
H        4.10120440       1.43808622      -1.68406913
H       -0.74519544       1.99929980      -1.75109712
H        2.37354494       3.81491519      -3.95992906
H        2.67120091       4.14214981      -6.34282154
H        4.09409685       4.81699972      -7.14617307
H        3.61674867       5.42508502      -5.55840324
H        5.21455719       1.41773089      -8.15186086
H        6.52565368       1.46436126     -10.23921060
H        8.44253513       3.01181767     -10.47626292
H        7.73618022       4.51361824      -6.50168152
C       -0.87751010      -0.87751010      -0.87751010
C       -1.28725273      -2.12717761      -0.44595246
C       -2.11314288      -2.89108962      -1.27222312
C       -2.52906261      -2.38328100      -2.50078475
N       -2.09966917      -1.17950767      -2.94383500
C       -1.29362426      -0.45339791      -2.12655019
N       -3.41703976      -3.03631804      -3.36076769
C       -4.45633808      -3.85612262      -2.98218694
N       -4.48788988      -4.52136436      -1.86288117
S       -5.87319534      -5.34277451      -1.66416258
O       -5.59542060      -6.76219892      -1.73047031
O       -6.60977801      -4.75714259      -0.56364720
C       -6.50957113      -4.79669427      -3.16383731
C       -5.66396307      -4.02351372      -3.84369593
C       -5.83128030      -3.38081438      -5.16830762
C       -7.86558045      -5.24825075      -3.41464144
C       -8.94854354      -4.46053953      -2.99828171
C      -10.25841694      -4.90269435      -3.18825599
C      -10.49614416      -6.12909888      -3.80660754
C       -9.42130157      -6.90455316      -4.23889040
Br      -9.74620395      -8.57052509      -5.07148984
C       -8.10838181      -6.47032770      -4.05196598
H       -0.98621095      -2.51816212       0.52178294
H       -2.41754093      -3.87457631      -0.93124251
H       -0.99486766       0.51278803      -2.52312184
H       -3.54483654      -2.43603625      -4.16751640
H       -5.78554316      -2.29094944      -5.07967967
H       -6.79105183      -3.63733692      -5.62888088
H       -5.04079588      -3.70566622      -5.85377483
H       -8.78189705      -3.51062245      -2.49162944
H      -11.09222085      -4.29794125      -2.83906344
H      -11.51857324      -6.47422588      -3.93781659
H       -7.27915763      -7.09628446      -4.37603788
C       -0.87751010       0.87751010       0.87751010
C       -0.46946720       2.14890241       1.24201319
C       -1.31621715       2.93173481       2.02850367
C       -2.55945853       2.43748852       2.41618131
N       -2.94597827       1.18148779       2.09554578
C       -2.10615086       0.43455139       1.33287011
N       -3.50767063       3.17203870       3.13441616
C       -3.71260153       4.53093790       3.05110821
N       -2.79686650       5.38425454       2.69101437
S       -3.35604018       6.90586605       2.61822618
O       -2.73391006       7.68925664       3.66492312
O       -3.35678077       7.33766227       1.23612477
C       -4.93821852       6.43600923       3.09587496
C       -5.04474897       5.13314236       3.35328140
C       -6.22212527       4.35441522       3.80386181
C       -5.88780114       7.53315303       3.10751847
C       -6.63352173       7.81906435       1.95477870
C       -7.51534576       8.90040517       1.93361635
C       -7.66778400       9.69636181       3.06770478
C       -6.94195555       9.40186044       4.22092914
Br      -7.14567080      10.48681898       5.75572910
C       -6.05733553       8.32304812       4.25029184
H        0.48842295       2.54898274       0.92203035
H       -0.98171100       3.92120312       2.32044563
H       -2.47438565      -0.55781441       1.08863024
H       -4.31215292       2.56966300       3.26657328
H       -6.49625644       3.59969610       3.06021973
H       -7.09635946       4.99311074       3.96779943
H       -6.00518092       3.84554725       4.74950876
H       -6.50983222       7.22295882       1.05135790
H       -8.07060332       9.13125527       1.02736695
H       -8.34516837      10.54608915       3.03935819
H       -5.48212102       8.11817233       5.15118662
C        0.87751010      -0.87751010       0.87751010
C        1.36739434      -0.40878462       2.08420384
C        2.14928463      -1.25546141       2.87170958
C        2.40756041      -2.55713467       2.44843328
N        1.96403033      -3.00674117       1.25224034
C        1.20809809      -2.16621526       0.49925902
N        3.11057666      -3.50289823       3.20065062
C        3.11797724      -3.60288788       4.57378252
N        2.89139117      -2.60330051       5.37744373
S        2.89643465      -3.04471564       6.93898213
O        4.04237554      -2.45073684       7.59497744
O        1.55531132      -2.90779248       7.46746402
C        3.22177862      -4.68863977       6.55968432
C        3.36951755      -4.90780694       5.25384824
C        3.67309904      -6.16922240       4.53808086
C        3.25003460      -5.55522533       7.72321270
C        2.07235259      -6.18730075       8.14771144
C        2.07162004      -6.98510389       9.29264335
C        3.24993685      -7.16723165      10.01468209
C        4.42601215      -6.55559062       9.58314236
Br       6.02145253      -6.79894379      10.56782257
C        4.43529500      -5.75545907       8.43992142
H        1.14871951       0.59715066       2.43102129
H        2.53997332      -0.87446119       3.80892524
H        0.86220562      -2.58464744      -0.44165159
H        3.13784235      -4.35627094       2.65427591
H        2.85567576      -6.43848471       3.86201180
H        3.82280115      -7.00548720       5.22898128
H        4.58973653      -6.06296577       3.94753462
H        1.13679185      -6.03725321       7.61010388
H        1.14845252      -7.45075423       9.63001878
H        3.23882435      -7.77777349      10.91401787
H        5.35657328      -5.26768823       8.12721846
