129
Properties=species:S:1:pos:R:3 pbc="F F F"
C        0.00000000       0.00000000       0.00000000
C        4.22430808      -0.18861889     -10.60855854
C        4.07554038       0.05380196      -9.13512994
C        3.49204317      -0.91094717      -8.30616960
C        3.33526795      -0.66851198      -6.93926051
C        3.77153333       0.53444826      -6.38127003
N        3.47035751       0.80473510      -4.99576404
S        1.84983849       1.29420077      -4.75322081
O        1.67143755       2.60559604      -5.34297882
O        0.97685255       0.19476426      -5.10432367
C        1.77419102       1.49702988      -3.00933828
C        0.96239657       0.65545159      -2.24382588
C        0.87780053       0.87780053      -0.87780053
C        1.60647613       1.92332678      -0.33726134
N        2.40314014       2.74348610      -1.06866189
C        2.47049340       2.53256979      -2.39896846
N        3.33346925       3.38911485      -3.07714997
C        4.38715711       1.48949482      -7.20098461
C        4.54233249       1.24810733      -8.56945902
H        3.60005098      -1.02537420     -10.93942144
H        5.26674408      -0.41651450     -10.85009192
H        3.90878739       0.69549415     -11.17287740
H        3.13257815      -1.85085088      -8.72062195
H        2.84966487      -1.41737992      -6.31732978
H        4.07662747       1.54655629      -4.62298703
H        0.40128665      -0.15167837      -2.70860943
H        1.57620541       2.14756841       0.72542289
H        2.86409904       3.85126140      -3.85890634
H        3.66010043       4.07753222      -2.39901673
H        5.01251638       1.99575791      -9.20462153
C        4.88485047       2.73084645      -6.66717990
C        5.30166866       3.77047843      -6.22011847
Br       5.97562841       5.45147543      -5.49725793
C       -6.62879573       1.20558398      -9.22103598
C       -6.08258505       0.72622734      -7.90811457
C       -5.51322325       1.62464019      -6.99868254
C       -4.98527187       1.16782270      -5.78856731
C       -5.03170294      -0.18958785      -5.46596083
N       -4.35658414      -0.64140285      -4.27286967
S       -2.66257006      -0.75996822      -4.47472180
O       -2.38253321      -1.84910125      -5.38837795
O       -2.13072705       0.56509107      -4.71030450
C       -2.12783076      -1.27177465      -2.88095377
C       -1.33304040      -0.42271485      -2.10591880
C       -0.87780053      -0.87780053      -0.87780053
C       -1.23688283      -2.15321075      -0.47697068
N       -2.01314876      -2.98483470      -1.21730468
C       -2.44111032      -2.54333847      -2.41758286
N       -3.26044351      -3.43595260      -3.10333796
C       -5.63123437      -1.08837011      -6.35803205
C       -6.15784253      -0.63185709      -7.57019923
H       -6.27764940       2.21661590      -9.45306472
H       -7.72245554       1.21573224      -9.19359820
H       -6.29490265       0.55099472     -10.03325101
H       -5.45403807       2.68557444      -7.23388559
H       -4.51748703       1.87730111      -5.10942881
H       -4.69881795      -1.56593368      -3.98141916
H       -1.06871749       0.57072667      -2.46022688
H       -0.90659840      -2.56460550       0.47285297
H       -2.91475813      -3.60999934      -4.04950930
H       -3.27302330      -4.30087070      -2.56275538
H       -6.61441998      -1.33387309      -8.26460274
C       -5.73450400      -2.49251595      -6.05585687
C       -5.82099231      -3.66848809      -5.80278515
Br      -5.96083660      -5.56993559      -5.39358958
C       -8.85790802       7.08950588      -1.30316617
C       -7.59337701       6.46345942      -0.79236415
C       -6.66959122       5.89293604      -1.67526165
C       -5.50583326       5.29079415      -1.19061093
C       -5.24386194       5.26308936       0.18030032
N       -4.10329500       4.51507076       0.65249090
S       -4.38416978       2.82848726       0.68460303
O       -5.35799416       2.54317154       1.71884671
O       -4.58197648       2.36636158      -0.67239759
C       -2.84033530       2.19964001       1.24058387
C       -2.06278131       1.40812321       0.39076953
C       -0.87780053       0.87780053       0.87780053
C       -0.52035647       1.16213020       2.18457759
N       -1.26329158       1.93433592       3.01766063
C       -2.42230060       2.43556917       2.54416189
N       -3.11167098       3.24559779       3.44246530
C       -6.14902046       5.86291270       1.06570338
C       -7.31489885       6.46379449       0.58120550
H       -9.05862099       6.79383365      -2.33835642
H       -8.78228088       8.18016804      -1.26212742
H       -9.71299330       6.76479157      -0.70062593
H       -6.85843677       5.89096620      -2.74705375
H       -4.81607479       4.82391210      -1.89037217
H       -3.83971635       4.80291251       1.60354193
H       -2.38253954       1.20391904      -0.62824088
H        0.39434163       0.77113678       2.62155578
H       -4.07900443       2.93622935       3.55903300
H       -2.61113707       3.19566671       4.32984560
H       -8.02004048       6.92051503       1.27234029
C       -5.90709165       5.89082446       2.48496071
C       -5.70447627       5.91420056       3.67358873
Br      -5.37686433       5.95199773       5.59549970
C        9.01820498      -6.89148129      -1.26543854
C        7.73211025      -6.29990988      -0.76754784
C        6.81444791      -5.73005349      -1.65723579
C        5.63005739      -5.15993363      -1.18397454
C        5.34135035      -5.16407007       0.18183120
N        4.17752867      -4.44743981       0.64588818
S        4.42470303      -2.75673015       0.71582690
O        5.37274762      -2.47306824       1.77419656
O        4.63942467      -2.26444960      -0.62793379
C        2.85848837      -2.16859909       1.25347172
C        2.08204721      -1.37567456       0.40395227
C        0.87780053      -0.87780053       0.87780053
C        0.50098805      -1.19443134       2.17164487
N        1.24276659      -1.96838882       3.00413272
C        2.42022291      -2.43794704       2.54386170
N        3.10794556      -3.25201584       3.43977266
C        6.24091728      -5.76362167       1.07309759
C        7.42739986      -6.33244423       0.60005476
H        9.23291471      -6.57182863      -2.29064512
H        8.96314577      -7.98398718      -1.24681145
H        9.85506412      -6.56227137      -0.64017655
H        7.02373965      -5.70350494      -2.72489537
H        4.94484886      -4.69277237      -1.88800650
H        3.90143741      -4.75882536       1.58590802
H        2.41723579      -1.14548889      -0.60450698
H       -0.42939299      -0.82967192       2.59807200
H        4.06663115      -2.92649063       3.58114499
H        2.58960430      -3.22905477       4.31799031
H        8.12795254      -6.78898408       1.29595919
C        5.97240552      -5.82391476       2.48655653
C        5.74752693      -5.87441023       3.67032840
Br       5.38391726      -5.95605713       5.58438738
