121
Properties=species:S:1:pos:R:3 pbc="F F F"
C        0.00000000       0.00000000       0.00000000
C        4.22430808      -0.18861889     -10.60855854
C        4.07554038       0.05380196      -9.13512994
C        3.49204317      -0.91094717      -8.30616960
C        3.33526795      -0.66851198      -6.93926051
C        3.77153333       0.53444826      -6.38127003
N        3.47035751       0.80473510      -4.99576404
S        1.84983849       1.29420077      -4.75322081
O        1.67143755       2.60559604      -5.34297882
O        0.97685255       0.19476426      -5.10432367
C        1.77419102       1.49702988      -3.00933828
C        0.96239657       0.65545159      -2.24382588
C        0.87780053       0.87780053      -0.87780053
C        1.60647613       1.92332678      -0.33726134
N        2.40314014       2.74348610      -1.06866189
C        2.47049340       2.53256979      -2.39896846
N        3.33346925       3.38911485      -3.07714997
C        4.38715711       1.48949482      -7.20098461
Br       5.04323024       3.12587881      -6.49730851
C        4.54233249       1.24810733      -8.56945902
H        3.60005098      -1.02537420     -10.93942144
H        5.26674408      -0.41651450     -10.85009192
H        3.90878739       0.69549415     -11.17287740
H        3.13257815      -1.85085088      -8.72062195
H        2.84966487      -1.41737992      -6.31732978
H        4.07662747       1.54655629      -4.62298703
H        0.40128665      -0.15167837      -2.70860943
H        1.57620541       2.14756841       0.72542289
H        2.86409904       3.85126140      -3.85890634
H        3.66010043       4.07753222      -2.39901673
H        5.01251638       1.99575791      -9.20462153
C      -11.14944005      -1.79748555      -1.69732213
C       -9.66985491      -2.01729972      -1.57731766
C       -8.93152392      -1.38533948      -0.57040220
C       -7.55052769      -1.57604702      -0.47944177
C       -6.89223478      -2.41069903      -1.38431782
N       -5.45087389      -2.47588797      -1.34409480
S       -4.70568158      -1.11963780      -2.07194070
O       -4.95181405      -1.16924800      -3.49895037
O       -5.03516179       0.05919655      -1.29997523
C       -2.99736289      -1.45305652      -1.83013978
C       -2.23532513      -0.62423704      -1.00211187
C       -0.87780053      -0.87780053      -0.87780053
C       -0.34308587      -1.94471430      -1.57926409
N       -1.07332914      -2.76062413      -2.38133486
C       -2.39035295      -2.50093380      -2.51074491
N       -3.08001358      -3.39962995      -3.32009054
C       -7.63205885      -3.07238949      -2.37318820
Br      -6.80500729      -4.25574166      -3.60566860
C       -9.01391059      -2.88012325      -2.46586500
H      -11.47067322      -0.92537011      -1.11805489
H      -11.69201519      -2.67500833      -1.33329798
H      -11.42266814      -1.61271999      -2.74177081
H       -9.42074415      -0.71998170       0.13837662
H       -6.98935193      -1.05026989       0.29000709
H       -5.10460723      -3.31505459      -1.82650897
H       -2.69336063       0.20767162      -0.47252870
H        0.71420878      -2.18874636      -1.52381335
H       -3.60445605      -2.91692578      -4.05288494
H       -2.38405058      -4.02257688      -3.73002191
H       -9.58386768      -3.38834104      -3.24068710
C       -1.61653282      11.14786295       1.87985196
C       -1.51123601       9.66544430       2.08779198
C       -0.50526778       8.92385364       1.45814419
C       -0.42790741       7.54052105       1.63758802
C       -1.34567656       6.88295255       2.45862251
N       -1.31847743       5.44078645       2.51159278
S       -2.04088712       4.71371075       1.14266221
O       -3.46609521       4.97183227       1.18208494
O       -1.25585983       5.04662320      -0.02654255
C       -1.81676924       3.00053284       1.46325710
C       -0.98816431       2.23849695       0.63501279
C       -0.87780053       0.87780053       0.87780053
C       -1.59312899       0.34002162       1.93391365
N       -2.39594092       1.07015074       2.74919648
C       -2.51169954       2.39044677       2.49988534
N       -3.32285787       3.07934447       3.39753173
C       -2.33384727       7.62562206       3.11816720
Br      -3.58369299       6.79915004       4.28357452
C       -2.41290292       9.00983852       2.93715741
H       -1.02693351      11.47155840       1.01560631
H       -1.25549596      11.67964339       2.76518215
H       -2.65693207      11.43176900       1.68845787
H        0.21348283       9.41260851       0.80322353
H        0.34121728       6.97722439       1.11360762
H       -1.81116009       5.09150000       3.34351070
H       -0.44741382       2.69907004      -0.18826615
H       -1.54894370      -0.71978500       2.16919223
H       -4.04685944       3.61430401       2.91310332
H       -3.74420010       2.38162438       4.01082489
H       -3.18717154       9.58211438       3.44360989
C       -1.35310789      -7.43597199       8.56138363
C       -0.77939806      -6.37350835       7.67036199
C       -1.60517717      -5.40673145       7.08571133
C       -1.06724986      -4.43498813       6.23827821
C        0.30347935      -4.40854620       5.97522606
N        0.80199144      -3.47792454       4.99094068
S        0.51648735      -3.99477427       3.38599846
O        1.34225646      -5.15573163       3.12202432
O       -0.91217473      -4.02979335       3.15832185
C        1.17315087      -2.66745023       2.43995808
C        0.32275333      -1.87997933       1.65894139
C        0.87780053      -0.87780053       0.87780053
C        2.25065984      -0.70369064       0.91271378
N        3.08641920      -1.45732968       1.67153925
C        2.54345529      -2.44047118       2.41810519
N        3.45664656      -3.14721659       3.19587092
C        1.13914388      -5.35342597       6.58506669
Br       3.01663475      -5.34452564       6.30525716
C        0.60086019      -6.32744192       7.43159674
H       -2.44062600      -7.50331938       8.45140484
H       -1.12305949      -7.21539712       9.60798387
H       -0.93857820      -8.41556346       8.30017368
H       -2.67846551      -5.41514160       7.26567313
H       -1.73012607      -3.71221961       5.76752119
H        1.81492408      -3.33646836       5.09477835
H       -0.75068136      -2.05333856       1.65556050
H        2.74171400       0.06244978       0.31908671
H        3.38344904      -4.15432681       3.03649092
H        4.38522365      -2.81148662       2.93993911
H        1.25147868      -7.06524055       7.89617658
