174
Properties=species:S:1:pos:R:3 pbc="F F F"
C        4.66572655       1.96752587      -5.66427066
O        3.79981425       1.31635559      -4.74666555
C        3.25208319       2.03498167      -3.71713155
C        2.43910251       1.24227846      -2.89403523
C        1.79149019       1.79149019      -1.79149019
C        1.94286877       3.13953679      -1.48852290
C        2.75078118       3.95059966      -2.29864359
C        2.90522686       5.40778947      -1.95772065
C        3.78104107       6.12405939      -2.91723368
C        4.36962320       5.53389701      -3.96584264
O        4.19688574       4.18010059      -4.22419476
C        3.40554861       3.39906938      -3.41561511
N        5.17534750       6.19717916      -4.85891562
C        5.39660755       7.45806822      -4.66812687
N        4.84102956       8.15002971      -3.62222468
H        4.96129465       9.14484066      -3.50962440
C        4.01042339       7.56030686      -2.71899059
O        3.48723482       8.18996627      -1.80664668
C        6.26034400       8.22614430      -5.60657671
C        6.36858640       7.78343390      -6.93258690
C        7.16603119       8.47693041      -7.84664869
C        7.86333430       9.60971161      -7.43290454
C        7.77626771      10.05125039      -6.11306395
C        6.97784771       9.35843232      -5.19681924
H        4.99879380       1.21902132      -6.39030832
H        5.55976035       2.35183249      -5.16357648
H        4.13789655       2.74642556      -6.22310977
H        2.31925209       0.18676804      -3.12835367
H        1.43547587       3.56566567      -0.62566145
H        3.32822824       5.48836452      -0.94878424
H        1.91168807       5.87295281      -1.95399700
H        5.82895316       6.89707465      -7.26188078
H        7.23668860       8.12317704      -8.87218466
H        8.33312916      10.92639233      -5.78636603
H        6.95779321       9.70324616      -4.16721196
C        8.68676613      10.32552864      -8.37267366
C        9.37639029      10.92502541      -9.15973029
Br      10.49145423      11.89436099     -10.43233430
C       -6.27471544      -2.68355887      -3.33924877
O       -5.30069929      -1.96622017      -2.59591593
C       -3.98836894      -2.35313480      -2.66269266
C       -3.16142086      -1.55591361      -1.85808174
C       -1.79149019      -1.79149019      -1.79149019
C       -1.22102347      -2.82576817      -2.52413681
C       -2.02948061      -3.63487974      -3.33566408
C       -1.39755716      -4.75073487      -4.12244495
C       -2.38621834      -5.50119469      -4.93492111
C       -3.69480179      -5.21597441      -4.95858665
O       -4.22204742      -4.17758182      -4.20155185
C       -3.41492007      -3.39825413      -3.40705890
N       -4.61034180      -5.90560970      -5.71549078
C       -4.19204005      -6.89963299      -6.43112960
N       -2.87196233      -7.26999499      -6.47132663
H       -2.53592196      -8.00271756      -7.07712019
C       -1.90957606      -6.61088845      -5.76925633
O       -0.72584666      -6.92222099      -5.83578011
C       -5.14105488      -7.68010147      -7.27190867
C       -6.30602111      -7.04849144      -7.73009466
C       -7.22157949      -7.74374341      -8.52428740
C       -6.97697430      -9.07491942      -8.85405673
C       -5.82979251      -9.71898168      -8.39180785
C       -4.91184496      -9.02416622      -7.59708810
H       -7.24750513      -2.22448689      -3.13613141
H       -6.33550895      -3.72647333      -3.01318704
H       -6.09544491      -2.59667859      -4.41530838
H       -3.60519774      -0.74609151      -1.28308456
H       -0.14977655      -3.00746728      -2.46955916
H       -0.90529673      -5.43735501      -3.42272525
H       -0.63278529      -4.32321199      -4.78264060
H       -6.50506681      -6.00935508      -7.47348670
H       -8.11832422      -7.23892186      -8.87480421
H       -5.64686779     -10.76276517      -8.63625456
H       -4.04611535      -9.56120355      -7.22093244
C       -7.91953069      -9.79400585      -9.67143189
C       -8.70892167     -10.39624073     -10.35598358
Br      -9.98530012     -11.37000361     -11.46284578
C       -2.24626208       6.06594468       3.98531632
O       -1.57826083       5.11548283       3.16909174
C       -2.16353213       3.89785034       2.94281394
C       -1.36823096       3.07181890       2.13536634
C       -1.79149019       1.79149019       1.79149019
C       -3.01370237       1.31074552       2.24648056
C       -3.82508998       2.12028927       3.05464518
C       -5.14514687       1.58585419       3.53973592
C       -5.88264940       2.56832941       4.37135533
C       -5.41884276       3.79165358       4.65886651
O       -4.18589996       4.22601860       4.18926254
C       -3.40121645       3.41633432       3.40268233
N       -6.10351372       4.70482356       5.42310501
C       -7.25174279       4.36014151       5.91091834
N       -7.80930947       3.12943756       5.67453693
H       -8.73126992       2.88374162       6.00074816
C       -7.19788521       2.18981538       4.90202025
O       -7.71567413       1.10465074       4.66352289
C       -8.03727627       5.31157443       6.74421431
C       -7.84685284       6.68716845       6.55058591
C       -8.56614664       7.61420469       7.30925897
C       -9.47089987       7.16602014       8.26903043
C       -9.65797495       5.80066716       8.48193993
C       -8.93907397       4.87122089       7.72280441
H       -1.60808295       6.95322647       4.04681401
H       -2.37811438       5.69178616       5.00526879
H       -3.19275667       6.38001976       3.53465545
H       -0.41090108       3.44517379       1.77829893
H       -3.34146867       0.30923283       1.97610150
H       -4.96074518       0.67775747       4.12687435
H       -5.75437976       1.31604201       2.66821611
H       -7.13902622       7.04438541       5.80449696
H       -8.40997379       8.67739851       7.14467800
H      -10.35267467       5.45108565       9.24212720
H       -9.07767652       3.81527372       7.93530109
C      -10.21257760       8.11936188       9.05302895
C      -10.83373269       8.91778560       9.70962771
Br     -11.83808794      10.20876921      10.77129236
C        3.58116238      -6.21720274       2.49915797
O        2.82044764      -5.24596585       1.79642190
C        2.77280010      -3.96147947       2.26991684
C        1.96619522      -3.13513263       1.47408834
C        1.79149019      -1.79149019       1.79149019
C        2.41607296      -1.24727413       2.90758137
C        3.22754507      -2.05558002       3.71689935
C        3.89663259      -1.45228258       4.92182182
C        4.72507397      -2.43594720       5.66131298
C        4.85602594      -3.71786499       5.29547193
O        4.20447799      -4.22032408       4.17637902
C        3.40815642      -3.41428560       3.39779109
N        5.62803420      -4.62812707       5.97528102
C        6.24862317      -4.23375260       7.04042687
N        6.17503989      -2.94212006       7.49612400
H        6.70853972      -2.61884460       8.28837538
C        5.45248535      -1.98379913       6.85343636
O        5.41817321      -0.82221644       7.24345812
C        7.10062715      -5.17818389       7.81425397
C        7.67651027      -6.26578167       7.14231526
C        8.48528724      -7.17406610       7.83025696
C        8.71202304      -7.00022638       9.19370102
C        8.13251261      -5.93144331       9.87662613
C        7.32302023      -5.02084353       9.18923552
H        3.47452446      -7.16741071       1.96618826
H        3.19413696      -6.36961766       3.51141470
H        4.64584562      -5.96414738       2.49743888
H        1.47561918      -3.55845426       0.60030036
H        2.27712501      -0.19657222       3.15310577
H        3.12261368      -1.05361057       5.58915274
H        4.52909054      -0.61959391       4.58995343
H        7.50088061      -6.40949938       6.07752859
H        8.92760082      -8.01012446       7.29432502
H        8.29683649      -5.80486875      10.94418229
H        6.85523864      -4.21949629       9.75351640
C        9.54420090      -7.93553660       9.90523093
C       10.24114986      -8.71885890      10.50113723
Br      11.36805738      -9.98542482      11.46466731
C       -0.00445707       0.01189536      -1.78238275
H       -0.66409135       0.67374010      -2.43557963
H        0.65740317      -0.63156657      -2.45157240
C       -0.90989263      -0.90692880      -0.91072765
C        0.90977584       0.90977584      -0.90977584
C       -0.00465871       1.77757030       0.00794375
H       -0.66225468       2.44313916      -0.64384735
H        0.64322798       2.43503045       0.67728295
C       -1.78241447       0.00034974      -0.00472694
H       -2.45427497      -0.65498947       0.64260836
H       -2.43311707       0.67328779      -0.65473579
C       -0.91132561       0.90220522       0.91563759
C       -0.01476271      -0.02253852       1.78660255
H       -0.67934791      -0.69751639       2.42135241
H        0.63392994       0.61504881       2.47327442
C        0.01484550      -1.77751727      -0.01636693
H        0.67870853      -2.42144646      -0.68295456
H       -0.62264859      -2.45592969       0.64226336
C        1.78714474       0.01002794       0.00389507
H        2.44202412       0.67113390       0.66197326
H        2.45385902      -0.65136977      -0.64189061
C        0.91606151      -0.90478549       0.90901405
