166
Properties=species:S:1:pos:R:3 pbc="F F F"
C        4.66572655       1.96752587      -5.66427066
O        3.79981425       1.31635559      -4.74666555
C        3.25208319       2.03498167      -3.71713155
C        2.43910251       1.24227846      -2.89403523
C        1.79149019       1.79149019      -1.79149019
C        1.94286877       3.13953679      -1.48852290
C        2.75078118       3.95059966      -2.29864359
C        2.90522686       5.40778947      -1.95772065
C        3.78104107       6.12405939      -2.91723368
C        4.36962320       5.53389701      -3.96584264
O        4.19688574       4.18010059      -4.22419476
C        3.40554861       3.39906938      -3.41561511
N        5.17534750       6.19717916      -4.85891562
C        5.39660755       7.45806822      -4.66812687
N        4.84102956       8.15002971      -3.62222468
H        4.96129465       9.14484066      -3.50962440
C        4.01042339       7.56030686      -2.71899059
O        3.48723482       8.18996627      -1.80664668
C        6.26034400       8.22614430      -5.60657671
C        6.36858640       7.78343390      -6.93258690
C        7.16603119       8.47693041      -7.84664869
C        7.86333430       9.60971161      -7.43290454
Br       8.94404298      10.54918184      -8.66629947
C        7.77626771      10.05125039      -6.11306395
C        6.97784771       9.35843232      -5.19681924
H        4.99879380       1.21902132      -6.39030832
H        5.55976035       2.35183249      -5.16357648
H        4.13789655       2.74642556      -6.22310977
H        2.31925209       0.18676804      -3.12835367
H        1.43547587       3.56566567      -0.62566145
H        3.32822824       5.48836452      -0.94878424
H        1.91168807       5.87295281      -1.95399700
H        5.82895316       6.89707465      -7.26188078
H        7.23668860       8.12317704      -8.87218466
H        8.33312916      10.92639233      -5.78636603
H        6.95779321       9.70324616      -4.16721196
C       -6.30445287      -2.89765865      -3.09541155
O       -5.32981094      -2.16361850      -2.36940595
C       -4.00269952      -2.44988874      -2.55160814
C       -3.17536430      -1.65102676      -1.74902515
C       -1.79149019      -1.79149019      -1.79149019
C       -1.20711492      -2.73067384      -2.63313970
C       -2.01574880      -3.53957649      -3.44469914
C       -1.36863700      -4.55189875      -4.35020123
C       -2.36060174      -5.31531838      -5.14641403
C       -3.68366795      -5.12392010      -5.06177480
O       -4.22355462      -4.17917051      -4.19845597
C       -3.41547210      -3.39886159      -3.40589941
N       -4.60294844      -5.82527963      -5.80321423
C       -4.17147743      -6.73647692      -6.61484828
N       -2.83585555      -7.00749921      -6.76992919
H       -2.49586628      -7.67193242      -7.44796101
C       -1.87184965      -6.32947985      -6.08839134
O       -0.67776393      -6.54979127      -6.25629257
C       -5.12401030      -7.52501448      -7.44404024
C       -6.35859017      -6.94946324      -7.77655380
C       -7.28019188      -7.65391466      -8.55550376
C       -6.97125586      -8.93897355      -8.99572104
Br      -8.21615889      -9.89516412     -10.04820127
C       -5.75324793      -9.52846694      -8.65886717
C       -4.82920149      -8.82431357      -7.87958422
H       -7.28870559      -2.52431962      -2.79509823
H       -6.27163134      -3.96174625      -2.84179173
H       -6.20919208      -2.72620428      -4.17203552
H       -3.62994851      -0.91554462      -1.08888067
H       -0.12495318      -2.83817721      -2.66367261
H       -0.78246596      -5.24671756      -3.73619347
H       -0.68365469      -4.02724856      -5.02773463
H       -6.60787286      -5.94685424      -7.43318148
H       -8.23161476      -7.19248097      -8.80795457
H       -5.51882294     -10.53767395      -8.98939063
H       -3.90464242      -9.32175394      -7.60185497
C       -2.12414053       5.94205528       4.23132727
O       -1.46386924       5.00197448       3.39699167
C       -2.10739822       3.84224078       3.05455740
C       -1.31320184       3.01709142       2.24512295
C       -1.79149019       1.79149019       1.79149019
C       -3.06868654       1.36547577       2.13676615
C       -3.87997510       2.17522746       2.94482187
C       -5.25994370       1.70036005       3.31043324
C       -5.98845954       2.67597216       4.15790245
C       -5.46959808       3.84562003       4.55414474
O       -4.18362939       4.22564363       4.19190808
C       -3.40037401       3.41618067       3.40367842
N       -6.14534175       4.75289934       5.33320119
C       -7.34258027       4.45544027       5.72478211
N       -7.95866191       3.28148063       5.37314142
H       -8.91370311       3.07764284       5.62441375
C       -7.35695721       2.35322857       4.57953506
O       -7.92423975       1.32170078       4.23790723
C       -8.12096884       5.40321827       6.56887790
C       -7.83300098       6.77253257       6.47907364
C       -8.54199350       7.69626182       7.25135497
C       -9.53448241       7.25025511       8.12121293
Br     -10.49430952       8.49686188       9.16835289
C       -9.81975739       5.88971915       8.23110550
C       -9.11127520       4.96364463       7.45817945
H       -1.43753152       6.77953925       4.39105267
H       -2.34631462       5.51479253       5.21406217
H       -3.01732454       6.34558356       3.74452378
H       -0.31295776       3.34763317       1.97378288
H       -3.43942001       0.40663882       1.78074417
H       -5.17166668       0.74730420       3.84640611
H       -5.82565277       1.52621719       2.38676792
H       -7.05644279       7.12772134       5.80374445
H       -8.30947654       8.75493347       7.16764029
H      -10.58370300       5.54038781       8.92179671
H       -9.32902047       3.90804683       7.59118403
C        3.42795403      -6.25668299       2.61288607
O        2.67826845      -5.28345042       1.90111653
C        2.70307802      -3.97989181       2.32122657
C        1.89773399      -3.15314050       1.52454171
C        1.79149019      -1.79149019       1.79149019
C        2.48450316      -1.22929038       2.85713492
C        3.29601273      -2.03768943       3.66632227
C        4.03962767      -1.41478323       4.81632609
C        4.85797651      -2.40179985       5.56255778
C        4.92099989      -3.70194734       5.24641562
O        4.20264067      -4.22144039       4.17710004
C        3.40746711      -3.41469690       3.39806910
N        5.68346846      -4.61572302       5.93225081
C        6.36423373      -4.20500972       6.95355918
N        6.36268809      -2.89394121       7.35665465
H        6.94204111      -2.56161610       8.11210249
C        5.65311902      -1.93277735       6.70382447
O        5.68269630      -0.75587328       7.04527818
C        7.20915831      -5.15246315       7.73144355
C        7.71126374      -6.28996591       7.08337755
C        8.51086299      -7.20299655       7.77575076
C        8.80213785      -6.98358224       9.12023035
Br       9.88209675      -8.21733602      10.06009151
C        8.29611176      -5.86426054       9.78020975
C        7.49591597      -4.94886575       9.08831756
H        3.26020842      -7.22241550       2.12549951
H        3.07834791      -6.35120933       3.64561207
H        4.50102241      -6.04931351       2.55709596
H        1.35369842      -3.59047888       0.69019650
H        2.39898096      -0.16451671       3.06330533
H        3.31149226      -0.95679427       5.49709046
H        4.69080216      -0.62388068       4.42395505
H        7.48490571      -6.46932263       6.03368025
H        8.89563965      -8.07819139       7.25821925
H        8.51060331      -5.70142484      10.83385937
H        7.08550544      -4.10608740       9.63665849
C       -0.00445707       0.01189536      -1.78238275
H       -0.66409135       0.67374010      -2.43557963
H        0.65740317      -0.63156657      -2.45157240
C       -0.90989263      -0.90692880      -0.91072765
C        0.90977584       0.90977584      -0.90977584
C       -0.00465871       1.77757030       0.00794375
H       -0.66225468       2.44313916      -0.64384735
H        0.64322798       2.43503045       0.67728295
C       -1.78241447       0.00034974      -0.00472694
H       -2.45427497      -0.65498947       0.64260836
H       -2.43311707       0.67328779      -0.65473579
C       -0.91132561       0.90220522       0.91563759
C       -0.01476271      -0.02253852       1.78660255
H       -0.67934791      -0.69751639       2.42135241
H        0.63392994       0.61504881       2.47327442
C        0.01484550      -1.77751727      -0.01636693
H        0.67870853      -2.42144646      -0.68295456
H       -0.62264859      -2.45592969       0.64226336
C        1.78714474       0.01002794       0.00389507
H        2.44202412       0.67113390       0.66197326
H        2.45385902      -0.65136977      -0.64189061
C        0.91606151      -0.90478549       0.90901405
