166
Properties=species:S:1:pos:R:3 pbc="F F F"
C        1.79151906       1.79151906      -1.79151906
C        3.06803108       1.35951295      -2.14460220
C        3.86982825       2.16446788      -2.95756647
C        3.39988378       3.40580374      -3.41033246
C        2.10956717       3.82620805      -3.06053738
C        1.30795701       3.01780277      -2.24745492
C        4.29242129       4.21665849      -4.28337092
O        5.13399497       3.65957554      -4.98367191
N        4.13397593       5.59106168      -4.22881356
C        4.83853687       6.52738351      -4.92153232
N        4.54595693       7.75383034      -4.69475423
C        5.23415178       8.76795676      -5.52397889
H        5.30510708       9.67473455      -4.90673285
C        6.67564319       8.35484115      -5.79906005
C        6.70206985       6.95993231      -6.35093840
O        7.52899764       6.58642728      -7.17697467
N        5.79863767       6.11293273      -5.77757563
C        4.37927094       9.17460060      -6.72251973
C        3.05618157       9.59479948      -6.48473607
C        2.23049529      10.02061666      -7.52837022
C        2.72094797      10.03628723      -8.82935277
Br       1.61512226      10.62372500     -10.24491263
C        4.02431043       9.62558258      -9.09259538
C        4.84835877       9.19659785      -8.04544078
H        3.44657696       0.40043535      -1.79952296
H        4.86413322       1.81855492      -3.23643232
H        1.69325868       4.75814319      -3.43229407
H        0.30482511       3.34602796      -1.98491839
H        3.47448554       5.99837459      -3.58305314
H        7.18115518       9.04175882      -6.48475937
H        7.25015886       8.33946876      -4.86424442
H        5.86895095       5.12358963      -6.00038579
H        2.66359701       9.59295295      -5.46888386
H        1.21474611      10.34009107      -7.31282119
H        4.41415002       9.63770830     -10.10745548
H        5.85968050       8.88865073      -8.29963060
C       -1.79151906      -1.79151906      -1.79151906
C       -2.95044945      -1.26453666      -2.35716011
C       -3.75136624      -2.07091149      -3.16958486
C       -3.39945008      -3.40708633      -3.40948358
C       -2.22502154      -3.92468104      -2.84661001
C       -1.42384875      -3.11487211      -2.03449385
C       -4.28350601      -4.21664257      -4.29230212
O       -4.95750049      -3.66266007      -5.15708186
N       -4.31462851      -5.58094763      -4.05827504
C       -5.05104803      -6.51211893      -4.72428574
N       -4.95063713      -7.72367226      -4.32023212
C       -5.66533921      -8.75129618      -5.10945203
H       -5.92608710      -9.55459456      -4.40589283
C       -6.99822687      -8.21350863      -5.61780889
C       -6.77673003      -6.90974897      -6.32646157
O       -7.44586316      -6.55473637      -7.29180006
N       -5.84242212      -6.10528999      -5.74143392
C       -4.73812990      -9.40847865      -6.12978272
C       -3.51841276      -9.94440716      -5.67289721
C       -2.64044148     -10.59670269      -6.54233801
C       -2.97439676     -10.72634606      -7.88584516
Br      -1.79873234     -11.61918273      -9.06584482
C       -4.17298758     -10.20540227      -8.36409854
C       -5.04933816      -9.54971528      -7.49134396
H       -3.23701549      -0.23101403      -2.17850575
H       -4.65240028      -1.65167046      -3.61504973
H       -1.89461271      -4.93937266      -3.04971057
H       -0.50990335      -3.51987165      -1.60599646
H       -3.79386624      -5.97352838      -3.28851864
H       -7.50669247      -8.92131489      -6.27966602
H       -7.67028247      -8.00875213      -4.77483744
H       -5.75565974      -5.15243278      -6.08483385
H       -3.24954253      -9.85452213      -4.62136916
H       -1.70747133     -11.00073158      -6.15945547
H       -4.44062257     -10.30559514      -9.41309609
H       -5.97498217      -9.16263129      -7.91034837
C       -1.79151906       1.79151906       1.79151906
C       -1.84474623       3.16468836       1.56271163
C       -2.65796170       3.96813101       2.36576988
C       -3.41113928       3.40094661       3.40393410
C       -3.36107745       2.01691429       3.61832087
C       -2.54705221       1.21418465       2.81197785
C       -4.26905240       4.30285803       4.22054027
O       -4.70419266       5.34208016       3.73096959
N       -4.50672770       3.91797924       5.52914424
C       -5.24451331       4.58299225       6.45994715
N       -5.30852264       4.05885759       7.62716128
C       -6.19607560       4.72183931       8.60817251
H       -5.76203301       4.52570646       9.59883502
C       -6.15091469       6.23662640       8.44200330
C       -6.41190510       6.59290417       7.00813131
O       -7.00650544       7.61267619       6.67321796
N       -5.83885182       5.74404142       6.10625279
C       -7.57209201       4.06005513       8.64424413
C       -7.63568389       2.66593052       8.83410271
C       -8.86075787       1.99945425       8.91927006
C      -10.04423387       2.72253092       8.81982319
Br     -11.70552780       1.83061474       8.94761734
C      -10.01028803       4.10094282       8.63125754
C       -8.78145896       4.76566411       8.54327432
H       -1.26492654       3.61878150       0.76282723
H       -2.70132467       5.03997881       2.17781699
H       -3.96755840       1.53577611       4.38036143
H       -2.51750432       0.13978522       2.97848192
H       -4.06622589       3.08960622       5.90008116
H       -6.86582103       6.74771367       9.09413868
H       -5.15070028       6.61496394       8.68820783
H       -5.85245738       6.01413963       5.12632936
H       -6.71513530       2.09034274       8.91995578
H       -8.87703395       0.92330870       9.06731573
H      -10.93229966       4.67202947       8.55498467
H       -8.80552061       5.84312119       8.39932003
C        1.79151906      -1.79151906       1.79151906
C        1.51413740      -3.15192898       1.90607984
C        2.32675076      -3.95788155       2.70723028
C        3.41135524      -3.40289598       3.40176877
C        3.69028928      -2.03581881       3.27020451
C        2.87594934      -1.23098856       2.46627681
C        4.25030132      -4.31067560       4.23147377
O        4.33596881      -5.50100018       3.94027343
N        4.87751121      -3.74680954       5.32953042
C        5.67772582      -4.37751987       6.23220701
N        6.13252117      -3.66624844       7.19577190
C        7.08764901      -4.32243117       8.11600724
H        6.96152579      -3.83294321       9.09210548
C        6.70464372      -5.78026018       8.34464049
C        6.52470304      -6.46591817       7.02231935
O        6.80392505      -7.64701007       6.84146447
N        5.92415442      -5.69620817       6.06878344
C        8.53189178      -4.03054263       7.71395685
C        8.91447223      -2.68704183       7.53420307
C       10.22874721      -2.34342515       7.20730981
C       11.18350403      -3.34341799       7.05966595
Br      12.96648237      -2.88628236       6.63099516
C       10.83245497      -4.67914907       7.23088436
C        9.51426430      -5.02072187       7.55541124
H        0.67556384      -3.59585932       1.37511210
H        2.10962826      -5.02206712       2.78742509
H        4.55005172      -1.58035003       3.75329419
H        3.10133222      -0.17205529       2.36238395
H        4.71562144      -2.77847465       5.56181718
H        7.44411986      -6.31428994       8.94926357
H        5.74294776      -5.84130877       8.86961552
H        5.63971003      -6.14899346       5.20422288
H        8.17654098      -1.89506399       7.65382885
H       10.49332677      -1.29789049       7.07644112
H       11.57504743      -5.46533366       7.11893271
H        9.28869273      -6.07673987       7.68252923
C       -0.00445707       0.01189536      -1.78238275
H       -0.66409135       0.67374010      -2.43557963
H        0.65740317      -0.63156657      -2.45157240
C       -0.90989263      -0.90692880      -0.91072765
C        0.90977584       0.90977584      -0.90977584
C       -0.00465871       1.77757030       0.00794375
H       -0.66225468       2.44313916      -0.64384735
H        0.64322798       2.43503045       0.67728295
C       -1.78241447       0.00034974      -0.00472694
H       -2.45427497      -0.65498947       0.64260836
H       -2.43311707       0.67328779      -0.65473579
C       -0.91132561       0.90220522       0.91563759
C       -0.01476271      -0.02253852       1.78660255
H       -0.67934791      -0.69751639       2.42135241
H        0.63392994       0.61504881       2.47327442
C        0.01484550      -1.77751727      -0.01636693
H        0.67870853      -2.42144646      -0.68295456
H       -0.62264859      -2.45592969       0.64226336
C        1.78714474       0.01002794       0.00389507
H        2.44202412       0.67113390       0.66197326
H        2.45385902      -0.65136977      -0.64189061
C        0.91606151      -0.90478549       0.90901405
