173
Properties=species:S:1:pos:R:3 pbc="F F F"
C        0.00000000       0.00000000       0.00000000
C        0.88140926       0.88140926      -0.88140926
C        2.23949852       1.00274518      -0.59961482
C        3.04843010       1.81008535      -1.40709900
C        2.50781893       2.50260624      -2.50257339
C        1.13539464       2.36453526      -2.76709506
C        0.32424566       1.55863086      -1.96191821
C        3.35086059       3.33808268      -3.36750329
N        2.84172754       4.02713326      -4.40254112
N        3.89457766       4.65733410      -4.94443099
H        3.74310739       5.27850696      -5.73385707
C        5.09069738       4.33189602      -4.37451659
C        4.75512303       3.54393282      -3.29235013
C        6.34327801       4.84265604      -4.86812496
O        6.38415419       5.89077146      -5.50748811
N        7.49889825       4.10551670      -4.59301542
C        7.50977589       2.62870849      -4.68363253
C        7.95638099       2.17924508      -6.09135074
N        9.25528891       2.78422917      -6.39680262
C        9.23603456       4.25591177      -6.34920710
C        8.78949343       4.72172830      -4.95237201
C       10.38937601       1.97022710      -6.31591275
O       10.28130623       0.74692423      -6.44308577
C       11.68694303       2.56660251      -6.05583497
C       12.95735032       2.10350406      -6.35153952
C       13.87463955       3.02193108      -5.78346783
C       13.11408855       3.97529278      -5.15021174
Br      13.78128698       5.43314584      -4.19836793
O       11.79273236       3.70304398      -5.29910317
H        2.68002405       0.47556833       0.24268168
H        4.10371000       1.88321781      -1.16040941
H        0.68687261       2.88582341      -3.61140091
H       -0.73416631       1.46939068      -2.19080252
H        5.44484365       3.14411551      -2.56320117
H        6.53360071       2.19052016      -4.47861338
H        8.21447244       2.26629291      -3.92595305
H        7.99378899       1.08699604      -6.13606690
H        7.24194597       2.52464530      -6.84810845
H       10.19577238       4.68664540      -6.63922232
H        8.50823089       4.58501462      -7.10160619
H        9.51096688       4.40851442      -4.19067273
H        8.71979804       5.81377628      -4.91730065
H       13.18006640       1.20072923      -6.90453870
H       14.95430294       2.97881501      -5.81785648
C       -0.88140926      -0.88140926      -0.88140926
C       -0.77539932      -0.79921348      -2.26724573
C       -1.58254936      -1.60694054      -3.07612456
C       -2.50190550      -2.50337956      -2.50771351
C       -2.59077698      -2.56868476      -1.10756321
C       -1.78568494      -1.76268217      -0.29642762
C       -3.34092353      -3.36885800      -3.34666503
N       -4.24334268      -4.21146083      -2.81659841
N       -4.80349207      -4.82051992      -3.87233076
H       -5.55377831      -5.48701076      -3.71468235
C       -4.23721469      -4.49087073      -5.06902457
C       -3.34341607      -3.48480623      -4.76318368
C       -4.64632341      -5.09946848      -6.30826711
O       -5.76570025      -5.59180109      -6.42491241
N       -3.72797656      -5.10710006      -7.36235375
C       -2.29482928      -5.39457913      -7.13270850
C       -2.01275605      -6.90163707      -7.31258370
N       -2.47884680      -7.32062579      -8.63684811
C       -3.91474218      -7.07465168      -8.85175957
C       -4.21449720      -5.57607504      -8.67302150
C       -1.51814148      -7.52531612      -9.63205825
O       -0.35468229      -7.79636895      -9.32026499
C       -1.88859674      -7.39163023     -11.02915355
C       -1.31140244      -7.93921580     -12.16177566
C       -2.00028363      -7.40228267     -13.27747215
C       -2.93721023      -6.53761176     -12.76477108
Br      -4.12822882      -5.51435626     -13.77021568
O       -2.87004760      -6.51552068     -11.40931122
H       -0.07038292      -0.11308716      -2.72944062
H       -1.47518785      -1.51875227      -4.15339709
H       -3.29140641      -3.25632835      -0.63636217
H       -1.87494472      -1.83510595       0.78402377
H       -2.74730337      -2.93095318      -5.47390378
H       -1.96446885      -5.10151693      -6.13674847
H       -1.72892316      -4.81011919      -7.86767605
H       -0.94543348      -7.09695965      -7.17445880
H       -2.56316249      -7.48596066      -6.56557657
H       -4.25313245      -7.44937436      -9.81913329
H       -4.45030520      -7.65481769      -8.08972880
H       -3.69389616      -4.98370609      -9.43255178
H       -5.28742225      -5.38523179      -8.77822093
H       -0.48337326      -8.63546166     -12.16649941
H       -1.81930128      -7.60853345     -14.32313970
C       -0.88140926       0.88140926       0.88140926
C       -2.22543615       1.05459785       0.56182452
C       -3.03437075       1.86198428       1.36925943
C       -2.50781275       2.50277334       2.50241247
C       -1.14943134       2.31294275       2.80465086
C       -0.33831071       1.50684880       1.99963523
C       -3.35178540       3.33758138       3.36707977
N       -2.85485606       3.97777260       4.43877326
N       -3.90447623       4.62416660       4.96769993
H       -3.75912768       5.21552648       5.78081725
C       -5.09130810       4.35475681       4.35104508
C       -4.74591441       3.59029166       3.25519991
C       -6.34261173       4.88968216       4.82176511
O       -6.37145622       5.91832619       5.49263135
N       -7.51108915       4.19858346       4.48775776
C       -7.57044277       2.72077816       4.53089598
C       -8.07533862       2.24252084       5.90911735
N       -9.36401955       2.87886326       6.19343789
C       -9.29782647       4.34995273       6.19337423
C       -8.79283635       4.84421307       4.82654432
C      -10.51954651       2.10429451       6.05167483
O      -10.45340710       0.87482629       6.14308285
C      -11.78913488       2.74945590       5.77078974
C      -13.08201190       2.31816048       6.01222151
C      -13.95193971       3.28244994       5.44564882
C      -13.14252400       4.23019334       4.86687573
Br     -13.73372374       5.73725903       3.94181799
O      -11.83561923       3.91151451       5.04774577
H       -2.65496843       0.56798371      -0.31004144
H       -4.07849335       1.97628490       1.09255897
H       -0.71215628       2.79335717       3.67858348
H        0.70901083       1.37690630       2.25813142
H       -5.42406899       3.23535779       2.49273356
H       -6.60222658       2.25824902       4.34225865
H       -8.26149464       2.40456729       3.74065648
H       -8.14785994       1.15115860       5.91783339
H       -7.37505388       2.54145129       6.69819455
H      -10.25255981       4.80188636       6.46719393
H       -8.58455059       4.63231049       6.97799061
H       -9.49900132       4.57781411       4.03333861
H       -8.68837295       5.93404791       4.82845412
H      -13.35000323       1.40629584       6.52903527
H      -15.03296686       3.27271453       5.44529303
C        0.88140926      -0.88140926       0.88140926
C        0.56547910      -1.04942328       2.22695613
C        1.37247825      -1.85742672       3.03570949
C        2.50132047      -2.50431953       2.50735858
C        2.79974880      -2.31988365       1.14739251
C        1.99537029      -1.51288757       0.33653687
C        3.34479637      -3.36913274       3.34251744
N        4.44257127      -3.97239494       2.85643571
N        4.93987877      -4.66355893       3.89290505
H        5.80627145      -5.17948557       3.76971440
C        4.16057993      -4.62443884       5.01209122
C        3.16359764      -3.71999248       4.70781586
C        4.48418806      -5.36766182       6.20220913
O        5.64193769      -5.70692143       6.43355463
N        3.43867243      -5.68399676       7.07476118
C        2.12220795      -6.13127026       6.56863870
C        2.07466931      -7.67176473       6.48054278
N        2.40978359      -8.23618765       7.79034947
C        3.73801852      -7.82652220       8.27661272
C        3.80406465      -6.29195508       8.36757402
C        1.36452718      -8.74088665       8.57010202
O        0.32010295      -9.11965780       8.03155549
C        1.50301458      -8.79225318      10.01411275
C        0.86973061      -9.59947895      10.94318435
C        1.29133347      -9.16459802      12.22410697
C        2.13325824      -8.10075722      12.00557762
Br       2.97863949      -7.10103575      13.33312552
O        2.25840840      -7.86097287      10.67549824
H       -0.30373418      -0.55905317       2.65759170
H        1.09846912      -1.96791664       4.08095145
H        3.66623005      -2.81084855       0.70701833
H        2.24953075      -1.38908410      -0.71258796
H        2.38719572      -3.38479016       5.38017445
H        1.89356164      -5.72539035       5.58378226
H        1.36664360      -5.76596240       7.27411240
H        1.08637099      -7.99208783       6.13839310
H        2.81682059      -8.03713818       5.76074095
H        3.99232349      -8.30608699       9.22322962
H        4.46714865      -8.18744365       7.54025940
H        3.08783376      -5.91656648       9.10575379
H        4.80330136      -5.96966202       8.67791160
H        0.17853872     -10.39804490      10.70875071
H        0.99955419      -9.56749286      13.18392737
