185
Properties=species:S:1:pos:R:3 pbc="F F F"
C        0.00000000       0.00000000       0.00000000
C        0.88172792       0.88172792      -0.88172792
C        2.22522054       0.55762257      -1.05963539
C        3.03330143       1.36422108      -1.86704649
C        2.49980455       2.49334021      -2.50562627
C        1.14387946       2.80102040      -2.32026723
C        0.33672082       2.00081450      -1.50646210
C        3.33946652       3.33408015      -3.35742282
N        2.85156198       3.95322122      -4.44490234
N        3.92191532       4.53718304      -5.00283481
H        3.80399344       4.98971673      -5.90240564
C        5.05294528       4.47571387      -4.24279117
C        4.71913224       3.63101963      -3.20195108
C        6.33931556       5.05849633      -4.55719461
O        7.38123993       4.52578619      -4.18858211
N        6.35518394       6.23376978      -5.31786171
C        5.32768955       7.29293111      -5.23238814
C        5.84088555       8.51752085      -4.44460986
N        7.13370161       8.96390615      -4.97814488
C        8.15546837       7.90761586      -4.96419360
C        7.66596158       6.71445619      -5.80052222
C        7.28336411       9.98435843      -5.92117940
O        8.28535335      10.10648879      -6.62151700
C        6.21653255      10.99742873      -6.06498490
C        5.89877460      11.78888200      -4.95033368
C        4.93818445      12.79566672      -5.05594568
C        4.31130241      13.03394839      -6.27823797
C        4.63441791      12.25930433      -7.39451213
C        5.58364692      11.23575578      -7.29187450
Br       5.90829619      10.18988108      -8.84160898
H        2.65223263      -0.32066830      -0.58247675
H        4.07555826       1.08736493      -2.00822962
H        0.71088225       3.67067766      -2.81080420
H       -0.71045139       2.25833320      -1.37300288
H        5.38876599       3.29016861      -2.42293008
H        4.41589059       6.94575945      -4.74588270
H        5.08493535       7.58351977      -6.25975119
H        5.08864580       9.30774907      -4.47343228
H        6.00299594       8.24779693      -3.39418597
H        9.11050208       8.27778625      -5.35062751
H        8.30830544       7.61012809      -3.92011283
H        7.52415037       7.01870358      -6.84498618
H        8.40943802       5.91201386      -5.78968730
H        6.40592743      11.62659351      -4.00083074
H        4.68850406      13.40524284      -4.18932858
H        3.57476512      13.83031393      -6.36635292
H        4.14180049      12.46484857      -8.34278294
C       -0.88172792      -0.88172792      -0.88172792
C       -2.16301629      -0.45473733      -1.22472489
C       -2.97100804      -1.26128170      -2.03227927
C       -2.49860842      -2.49399459      -2.50616802
C       -1.20402086      -2.90510529      -2.15604094
C       -0.39818427      -2.10415636      -1.34165678
C       -3.33725944      -3.33596029      -3.35774975
N       -2.81661369      -4.10505172      -4.32802013
N       -3.88475146      -4.64143922      -4.93574248
H       -3.73095936      -5.19219421      -5.77296224
C       -5.06897557      -4.39867593      -4.30379881
C       -4.74842631      -3.48681785      -3.31685878
C       -6.37345079      -4.88913871      -4.69241700
O       -7.38526363      -4.22771019      -4.48263440
N       -6.43862389      -6.12926381      -5.33892774
C       -5.53666632      -7.26455855      -5.05178392
C       -6.24248092      -8.34987756      -4.21065778
N       -7.51920865      -8.72696352      -4.82958046
C       -8.42496829      -7.58491438      -5.01739516
C       -7.74133519      -6.53348422      -5.90612058
C       -7.68429200      -9.81995620      -5.68465374
O       -8.62452143      -9.91971774      -6.46911996
C       -6.71749998     -10.93658467      -5.62486154
C       -6.58632452     -11.63633330      -4.41533246
C       -5.72765217     -12.73303315      -4.32911153
C       -5.01810420     -13.15145012      -5.45393445
C       -5.15614857     -12.46802154      -6.66406426
C       -6.00158545     -11.35606936      -6.75362240
Br      -6.07348781     -10.44799577      -8.41830266
H       -2.54058242       0.50325274      -0.87671139
H       -3.96212623      -0.90517297      -2.30385361
H       -0.81841142      -3.85645922      -2.51749347
H        0.60048565      -2.44235202      -1.07901832
H       -5.44893202      -3.00800770      -2.64492495
H       -4.64309889      -6.95534357      -4.50909028
H       -5.23092933      -7.67945272      -6.01782426
H       -5.57521446      -9.20501290      -4.08959979
H       -6.47259516      -7.96074929      -3.21163439
H       -9.37294502      -7.90272345      -5.46324737
H       -8.64248348      -7.16978853      -4.02627435
H       -7.53539427      -6.95432617      -6.89811969
H       -8.39701616      -5.66889232      -6.04523071
H       -7.15982614     -11.33203158      -3.54149396
H       -5.62247373     -13.27160858      -3.38899317
H       -4.36153994     -14.01725361      -5.39263841
H       -4.60156402     -12.81370020      -7.53416778
C       -0.88172792       0.88172792       0.88172792
C       -0.40342625       2.11264418       1.32640807
C       -1.21016775       2.92082946       2.13357180
C       -2.50064715       2.50513924       2.49298464
C       -2.96809568       1.26585855       2.03121286
C       -2.15973651       0.45274733       1.23151358
C       -3.35018733       3.35122612       3.32955604
N       -4.68449622       3.38545459       3.17973473
N       -5.09164813       4.32672174       4.04356330
H       -6.06996001       4.59266242       4.03349338
C       -4.11143444       4.78699048       4.87302540
C       -2.95198042       4.22337617       4.37674636
C       -4.26206917       5.75785636       5.93508098
O       -3.34682600       6.52049925       6.22828298
N       -5.49441445       5.81539200       6.59700898
C       -6.35169413       4.64050692       6.86080775
C       -6.26738073       4.19809290       8.33754262
N       -6.50732885       5.34019235       9.22823143
C       -5.57749174       6.45428064       8.99550546
C       -5.70882041       6.93176238       7.54035721
C       -7.74951641       5.65174038       9.78764515
O       -8.02982571       6.76921362      10.21431981
C       -8.76903921       4.58961968       9.92028730
C       -8.46116188       3.46925739      10.70757101
C       -9.41370485       2.46906617      10.90702583
C      -10.68333995       2.59515939      10.34498944
C      -11.00011132       3.71510049       9.57302255
C      -10.04415093       4.71367456       9.35345171
Br     -10.54041422       6.16421503       8.23515699
H        0.58930409       2.45610577       1.04723939
H       -0.82734195       3.88571949       2.45809137
H       -3.96816553       0.92807356       2.29612502
H       -2.53925993      -0.50535112       0.88697587
H       -1.95017534       4.41045754       4.74123180
H       -6.08015583       3.78392672       6.24345020
H       -7.37758457       4.93458523       6.61603651
H       -6.97313913       3.38418304       8.51250498
H       -5.26152205       3.82276264       8.56069416
H       -5.77141671       7.28064028       9.68685885
H       -4.56397796       6.08435814       9.19021026
H       -6.72284290       7.30814704       7.35685019
H       -5.01282297       7.75295260       7.34536362
H       -7.48110584       3.37937072      11.17287512
H       -9.17196981       1.59785661      11.51324907
H      -11.43278564       1.82436663      10.51427969
H      -11.99867860       3.80145698       9.14929642
C        0.88172792      -0.88172792       0.88172792
C        0.37458227      -2.07447164       1.39342459
C        1.18128510      -2.88263843       2.20064547
C        2.50016739      -2.50542730       2.49317634
C        2.99611427      -1.30455549       1.96449734
C        2.18828481      -0.49111820       1.16459440
C        3.34932120      -3.35201879       3.32962949
N        4.67425297      -3.44539157       3.13004100
N        5.07912870      -4.36825262       4.01455185
H        6.04528851      -4.67334455       3.97748275
C        4.11592254      -4.75662721       4.89890056
C        2.96008476      -4.16656160       4.42545658
C        4.27147516      -5.69113820       5.99239315
O        3.34002495      -6.40466697       6.35091630
N        5.52620802      -5.77244802       6.60815939
C        6.43795878      -4.62354876       6.79150126
C        6.42994025      -4.12158938       8.25148663
N        6.66121411      -5.23724329       9.17729523
C        5.68060279      -6.32133797       9.02533707
C        5.73507833      -6.85936249       7.58649917
C        7.91188999      -5.57651407       9.70049788
O        8.16583046      -6.68705989      10.16046880
C        8.97604023      -4.55175108       9.75115488
C        8.74329560      -3.39048102      10.50421366
C        9.74086058      -2.42229764      10.62663862
C       10.98117557      -2.62067335      10.02163986
C       11.22343005      -3.78128934       9.28351498
C       10.22170968      -4.74849565       9.14107187
Br      10.61658344      -6.25972106       8.06348174
H       -0.64101678      -2.38839903       1.16665882
H        0.77489802      -3.81821579       2.57803901
H        4.01825209      -0.99713868       2.17697334
H        2.59031156       0.43703961       0.76761274
H        1.96721901      -4.29920702       4.83543864
H        6.17509629      -3.78118542       6.15125103
H        7.44114237      -4.96767573       6.51938822
H        7.17294936      -3.33046077       8.36641702
H        5.44901986      -3.69797035       8.49798863
H        5.87009821      -7.12757083       9.74124679
H        4.69069185      -5.90390700       9.24394750
H        6.72569680      -7.28283492       7.37930842
H        5.00073271      -7.65892224       7.45148423
H        7.78684525      -3.24357553      11.00293090
H        9.55731394      -1.51941472      11.20634683
H       11.76591745      -1.87456299      10.13095152
H       12.20016386      -3.92381063       8.82545752
