157
Properties=species:S:1:pos:R:3 pbc="F F F"
C        0.00000000       0.00000000       0.00000000
C        0.88141886       0.88141886      -0.88141886
C        0.83329183       2.26481482      -0.74051403
C        1.63662750       3.07116241      -1.55080730
C        2.49860281       2.49095273      -2.49309353
C        2.53062698       1.09747362      -2.63824938
C        1.72213445       0.29405414      -1.82741055
C        3.32788000       3.39677980      -3.33772354
O        2.87542984       4.50269880      -3.60714050
N        4.55973476       2.90099925      -3.70064522
C        5.48785130       3.56039160      -4.46569392
S        5.22042298       5.06713852      -5.21740664
N        6.74771746       5.12503206      -5.87714477
C        7.37211570       4.00317719      -5.50459249
N        6.68544722       3.08161110      -4.70819835
C        8.76028829       3.70643823      -5.90429366
N        9.34684102       2.54485792      -5.50185582
N       10.57151942       2.51214307      -5.99748284
N       10.80337453       3.65373534      -6.70324820
C       12.08565519       3.84336460      -7.31539723
C       12.45921701       5.02859525      -7.96126529
C       13.71845096       5.15034791      -8.56508526
C       14.62110990       4.09371659      -8.51891950
Br      16.31349003       4.26679011      -9.34002257
C       14.28037397       2.91429468      -7.86722495
C       13.02111318       2.79003429      -7.26749558
C        9.64890042       4.43837241      -6.68192297
C        9.46273873       5.73559193      -7.37197434
H        0.17126503       2.73073599      -0.01344452
H        1.58966806       4.15445373      -1.44568477
H        3.14861504       0.61995789      -3.39383056
H        1.74637507      -0.78663049      -1.94771870
H        4.89567028       2.02352264      -3.32962363
H       11.82452398       5.90113843      -8.01569365
H       13.98207873       6.07962292      -9.06540298
H       14.98015478       2.08387959      -7.81995056
H       12.78831324       1.84903339      -6.77026934
H        8.42964202       6.08451999      -7.34835979
H        9.71968981       5.65619226      -8.43253429
H       10.06502761       6.51507976      -6.89493644
C       -0.88141886      -0.88141886      -0.88141886
C       -1.67608191      -0.29877819      -1.86376058
C       -2.48618564      -1.10552408      -2.66688749
C       -2.48990555      -2.49765207      -2.49509145
C       -1.69716931      -3.07509377      -1.49408690
C       -0.89025463      -2.26342794      -0.68991657
C       -3.37843586      -3.31122544      -3.37272204
O       -4.41806565      -2.79859097      -3.76861252
N       -2.90820011      -4.56627245      -3.68690666
C       -3.55207609      -5.48030160      -4.48155913
S       -5.12113521      -5.26944684      -5.11438609
N       -5.11101963      -6.73499550      -5.90387915
C       -3.93212865      -7.30761036      -5.64014638
N       -3.01991454      -6.62943259      -4.82590954
C       -3.56182318      -8.62899154      -6.18020545
N       -2.34945329      -9.16943215      -5.87466932
N       -2.26785191     -10.34972622      -6.46356720
N       -3.40740869     -10.57973330      -7.17321609
C       -3.52899886     -11.80024092      -7.91517724
C       -4.60730663     -12.07672690      -8.76504401
C       -4.68770561     -13.29841564      -9.44776289
C       -3.68561748     -14.25059462      -9.29753389
Br      -3.80634947     -15.89545360     -10.21849965
C       -2.59601576     -13.99140690      -8.47447095
C       -2.51689230     -12.77312616      -7.78862460
C       -4.27360262      -9.49930507      -6.99628811
C       -5.63975941      -9.37573189      -7.55481370
H       -1.68374793       0.77930081      -2.01099843
H       -3.11518305      -0.64610886      -3.42851466
H       -1.71669624      -4.14434942      -1.30135783
H       -0.28106346      -2.71573990       0.08934009
H       -1.98116814      -4.85721642      -3.41043199
H       -5.40940908     -11.37808037      -8.95386662
H       -5.53863148     -13.49090982     -10.09756333
H       -1.80398934     -14.72604099      -8.35395459
H       -1.65044703     -12.60801566      -7.14915328
H       -6.18778418      -8.52339611      -7.15134151
H       -6.24462969     -10.25393518      -7.30985149
H       -5.60069274      -9.23485093      -8.63950015
C       -0.88141886       0.88141886       0.88141886
C       -0.53646375       1.08884678       2.21331014
C       -1.34614877       1.89168898       3.02075945
C       -2.49433420       2.49810283       2.49021205
C       -2.84216336       2.27265618       1.15153044
C       -2.03065189       1.46536014       0.34758711
C       -3.32754458       3.33811716       3.39672160
O       -3.35424693       3.04524057       4.58578163
N       -3.96126139       4.40296380       2.79715403
C       -4.76912895       5.30912672       3.43568115
S       -5.23957987       5.19492570       5.07046257
N       -6.13285113       6.59870077       5.01834239
C       -6.03698026       7.07139644       3.77150869
N       -5.27719414       6.36080708       2.83725545
C       -6.70430761       8.31702165       3.34969092
N       -6.57862308       8.75040625       2.06452544
N       -7.27375517       9.86746479       1.93992537
N       -7.83651645      10.18490618       3.13893544
C       -8.62294720      11.37894343       3.24252638
C       -9.14499193      11.85056429       4.45352133
C       -9.92918824      13.01184896       4.49284694
C      -10.18921187      13.71982655       3.32470756
Br     -11.25113564      15.28078080       3.38838628
C       -9.66620236      13.28203313       2.11365812
C       -8.88635132      12.11970833       2.07258340
C       -7.50730009       9.19512706       4.06676865
C       -7.96158637       9.13360194       5.47511669
H        0.35158587       0.62701887       2.64001255
H       -1.07954207       2.04432622       4.06593828
H       -3.75223263       2.68547515       0.72469572
H       -2.30784508       1.28882418      -0.68920598
H       -3.78285179       4.63553489       1.83042987
H       -8.96489622      11.37151504       5.40494480
H      -10.32762430      13.35396687       5.44551347
H       -9.85821115      13.83063777       1.19513601
H       -8.49783517      11.80521769       1.10456311
H       -7.71348479       8.18878237       5.96025464
H       -9.05053339       9.21780063       5.54008233
H       -7.48600197       9.92146651       6.06757534
C        0.88141886      -0.88141886       0.88141886
C        2.24308240      -0.98193296       0.61360531
C        3.04836401      -1.79255946       1.41767372
C        2.49192541      -2.49195007       2.49877360
C        1.11712849      -2.39619548       2.75302600
C        0.31391976      -1.58626147       1.94341790
C        3.39369283      -3.34899363       3.31969688
O        4.35858331      -3.86112243       2.76556339
N        3.06405215      -3.44451774       4.65280933
C        3.75326763      -4.16865594       5.59201325
S        5.07131283      -5.19187234       5.24178296
N        5.28884233      -5.62732037       6.83373159
C        4.35184200      -4.98738712       7.54065627
N        3.45166427      -4.15443068       6.86916171
C        4.23724983      -5.12974802       9.00402232
N        3.25943460      -4.45942072       9.67469944
N        3.36142146      -4.76279295      10.95693092
N        4.41319609      -5.60896504      11.13819694
C        4.72509905      -6.05494219      12.46437577
C        5.85166346      -6.82975783      12.76765626
C        6.09468555      -7.25955707      14.07964151
C        5.22124785      -6.90924447      15.10325367
Br       5.55570702      -7.49781098      16.86678471
C        4.10666534      -6.12503291      14.83019536
C        3.86060881      -5.69880924      13.51922500
C        4.98884114      -5.88391327       9.89644139
C        6.12484846      -6.80037887       9.64507767
H        2.69073014      -0.44488916      -0.22017375
H        4.11234438      -1.87767931       1.19978288
H        0.64674541      -2.96539905       3.55025903
H       -0.75347904      -1.51963233       2.14130999
H        2.31705155      -2.88804925       5.04371575
H        6.58909780      -7.11915551      12.03310275
H        6.97394115      -7.86529770      14.28786578
H        3.42018333      -5.84036859      15.62343301
H        2.97462293      -5.08972847      13.34326457
H        6.29603104      -6.98299056       8.58350020
H        5.93904072      -7.78511878      10.08425685
H        7.05395908      -6.37930740      10.04177733
