165
Properties=species:S:1:pos:R:3 pbc="F F F"
C        0.00000000       0.00000000       0.00000000
C        0.88141886       0.88141886      -0.88141886
C        0.83329183       2.26481482      -0.74051403
C        1.63662750       3.07116241      -1.55080730
C        2.49860281       2.49095273      -2.49309353
C        2.53062698       1.09747362      -2.63824938
C        1.72213445       0.29405414      -1.82741055
C        3.32788000       3.39677980      -3.33772354
O        2.87542984       4.50269880      -3.60714050
N        4.55973476       2.90099925      -3.70064522
C        5.48785130       3.56039160      -4.46569392
S        5.22042298       5.06713852      -5.21740664
N        6.74771746       5.12503206      -5.87714477
C        7.37211570       4.00317719      -5.50459249
N        6.68544722       3.08161110      -4.70819835
C        8.76028829       3.70643823      -5.90429366
N        9.34684102       2.54485792      -5.50185582
N       10.57151942       2.51214307      -5.99748284
N       10.80337453       3.65373534      -6.70324820
C       12.08565519       3.84336460      -7.31539723
C       12.45921701       5.02859525      -7.96126529
C       13.71845096       5.15034791      -8.56508526
C       14.62110990       4.09371659      -8.51891950
C       14.28037397       2.91429468      -7.86722495
C       13.02111318       2.79003429      -7.26749558
C        9.64890042       4.43837241      -6.68192297
C        9.46273873       5.73559193      -7.37197434
H        0.17126503       2.73073599      -0.01344452
H        1.58966806       4.15445373      -1.44568477
H        3.14861504       0.61995789      -3.39383056
H        1.74637507      -0.78663049      -1.94771870
H        4.89567028       2.02352264      -3.32962363
H       11.82452398       5.90113843      -8.01569365
H       13.98207873       6.07962292      -9.06540298
H       14.98015478       2.08387959      -7.81995056
H       12.78831324       1.84903339      -6.77026934
H        8.42964202       6.08451999      -7.34835979
H        9.71968981       5.65619226      -8.43253429
H       10.06502761       6.51507976      -6.89493644
C       15.91122603       4.22565205      -9.14485353
C       16.99169829       4.33614799      -9.66907327
Br      18.73873055       4.51481059     -10.51669226
C       -0.88141886      -0.88141886      -0.88141886
C       -0.61098997      -2.24231107      -0.98531963
C       -1.41506950      -3.04757908      -1.79594863
C       -2.49877362      -2.49193960      -2.49193586
C       -2.75567857      -1.11787599      -2.39279542
C       -1.94605652      -0.31466791      -1.58287471
C       -3.31960426      -3.39363172      -3.34914736
O       -2.76453587      -4.35630311      -3.86443016
N       -4.65359360      -3.06656626      -3.44121937
C       -5.59286905      -3.75622909      -4.16483868
S       -5.24203291      -5.07141713      -5.19151809
N       -6.83442874      -5.29135234      -5.62411320
C       -7.54196404      -4.35715388      -4.98076747
N       -6.87060827      -3.45731219      -4.14733622
C       -9.00585757      -4.24530967      -5.11985294
N       -9.67716696      -3.27028418      -4.44610363
N      -10.95981209      -3.37430731      -4.74702593
N      -11.14065435      -4.42469847      -5.59500525
C      -12.46710759      -4.73843226      -6.03887716
C      -12.76966022      -5.86401466      -6.81540267
C      -14.08202924      -6.10887193      -7.24298296
C      -15.10672097      -5.23829337      -6.88873165
C      -14.83434599      -4.12477515      -6.10277248
C      -13.52300559      -3.87687814      -5.67875932
C       -9.89828139      -4.99718846      -5.87372595
C       -9.64646715      -6.13076651      -6.79307134
H        0.22483109      -2.68933755      -0.45093908
H       -1.19514879      -4.11092515      -1.88373263
H       -3.55506780      -0.64797155      -2.95936415
H       -2.14602409       0.75217655      -1.51361573
H       -5.04489129      -2.32153640      -2.88238886
H      -12.03418144      -6.59931791      -7.10785671
H      -14.28968767      -6.98729978      -7.85011718
H      -15.62841277      -3.44053622      -5.81503594
H      -13.34761788      -2.99179406      -5.06820402
H       -8.58491876      -6.29936203      -6.97824102
H      -10.08807761      -5.94382941      -7.77650934
H      -10.04036160      -7.06157173      -6.37311048
C      -16.45147414      -5.49511779      -7.33513967
C      -17.57770493      -5.71020824      -7.70900638
Br     -19.39872485      -6.05799132      -8.31351724
C       -0.88141886       0.88141886       0.88141886
C       -1.14464591       0.50047743       2.19349733
C       -1.95533370       1.30510263       2.99816088
C       -2.49131648       2.49871089       2.49262171
C       -2.23271809       2.86792048       1.16571141
C       -1.42343998       2.05768729       0.36247187
C       -3.35626283       3.31584197       3.39027855
O       -4.01318960       2.72999132       4.24208821
N       -3.29395918       4.67648744       3.19093260
C       -3.99464481       5.61687266       3.90241935
S       -5.17495826       5.25245740       5.07755248
N       -5.48121882       6.85354443       5.41513104
C       -4.68641923       7.57511435       4.61835180
N       -3.83167298       6.90829878       3.73528491
C       -4.68039676       9.04966198       4.64096144
N       -3.85468145       9.73600387       3.80286945
N       -4.04698172      11.02753671       4.00662689
N       -4.97562031      11.19612096       4.98861680
C       -5.32651610      12.52631566       5.39158526
C       -6.18082272      12.80155635       6.46669848
C       -6.50998092      14.12241275       6.80149047
C       -5.97923878      15.18131909       6.07318812
C       -5.11405293      14.93394612       5.01389456
C       -4.78803285      13.61474032       4.67586988
C       -5.42151316       9.94100225       5.40668039
C       -6.46837954       9.68045791       6.42146756
H       -0.73549272      -0.42154349       2.60149631
H       -2.16832972       0.99956897       4.02190787
H       -2.67478544       3.75912670       0.72849136
H       -1.23025939       2.34561504      -0.66841115
H       -2.63043767       5.07599136       2.54238752
H       -6.61062328      12.03531966       7.09541313
H       -7.18038643      14.30912757       7.63759064
H       -4.68871089      15.75407855       4.44119548
H       -4.11064857      13.46026375       3.83670364
H       -6.76489298       8.63178825       6.46584057
H       -7.38416877      10.23309046       6.19115712
H       -6.10940796       9.94449809       7.42113776
C       -6.32531158      16.53505776       6.42136226
C       -6.61514755      17.66881389       6.71295811
Br      -7.08378779      19.50200167       7.18444394
C        0.88141886      -0.88141886       0.88141886
C        2.15823108      -0.45141049       1.22897910
C        2.96623618      -1.26068489       2.03167613
C        2.48994250      -2.49498323       2.49772335
C        1.20805627      -2.92683609       2.13145762
C        0.40372830      -2.11508855       1.32478229
C        3.39541428      -3.32298747       3.34398159
O        4.60178484      -3.23044751       3.15303678
N        2.77020868      -4.09112222       4.30004832
C        3.40212710      -4.92080176       5.19100797
S        5.07514419      -5.24910667       5.18071728
N        4.98915107      -6.26086632       6.49987689
C        3.70526107      -6.30470512       6.86991920
N        2.76831250      -5.56292243       6.14402174
C        3.24519636      -7.10769415       8.01812966
N        1.92378293      -7.12157711       8.34819472
N        1.77144914      -7.91767005       9.39202614
N        2.98549481      -8.40912010       9.76574316
C        3.06154883      -9.28446941      10.89839878
C        4.27182444      -9.74776539      11.42948772
C        4.28644721     -10.62316121      12.52427572
C        3.09267097     -11.03444043      13.10663459
C        1.87958634     -10.57309354      12.60921373
C        1.86368146      -9.70206223      11.51289936
C        3.95692719      -7.92391920       8.88834941
C        5.39950824      -8.25857672       8.91222004
H        2.54229161       0.50391668       0.87707061
H        3.96934457      -0.92643615       2.29402585
H        0.82962530      -3.89983725       2.43294094
H       -0.58825528      -2.45713819       1.03858037
H        1.77640098      -4.01025240       4.46216317
H        5.23913969      -9.45263339      11.04958299
H        5.23977953     -10.97298446      12.91434064
H        0.94047593     -10.88342742      13.06008158
H        0.89376914      -9.36567490      11.14817192
H        5.93467658      -7.89276462       8.03508060
H        5.55083005      -9.34218511       8.91540120
H        5.88487473      -7.80705144       9.78311764
C        3.11635806     -11.93671098      14.22866257
C        3.13619599     -12.69236256      15.16836100
Br       3.16827226     -13.91418727      16.68777388
