145
Properties=species:S:1:pos:R:3 pbc="F F F"
C        0.00000000       0.00000000       0.00000000
C        4.10014537       4.24225607      -2.80543099
O        3.20689452       3.28832466      -3.36985680
C        2.48408772       2.50857701      -2.50384031
C        2.53466316       2.62144055      -1.10863077
C        1.73925415       1.80682503      -0.29916601
C        0.88193420       0.88193420      -0.88193420
C        0.82127935       0.75523234      -2.26654713
C        1.63619294       1.55161563      -3.09734457
C        1.56807417       1.41734857      -4.60744940
H        2.49549561       1.73079014      -5.10014873
O        0.47149891       2.20957040      -5.07712990
C       -0.36125518       1.30770802      -5.65739172
N        0.01973069       0.07052754      -5.70425886
N        1.23375963       0.08755199      -5.08212130
C        2.09277161      -0.98694429      -5.03760580
O        3.23644657      -0.91360513      -4.59021810
C        1.54226541      -2.27798132      -5.58392307
C       -1.61803477       1.85745585      -6.16421497
C       -2.55009743       1.00142115      -6.73947723
N       -3.75042138       1.40880672      -7.22284739
C       -4.02642804       2.73146490      -7.12368695
C       -3.15566012       3.65743467      -6.56731756
Br      -3.62439262       5.48087201      -6.47010291
C       -1.92967575       3.21622870      -6.07834936
H        4.58135061       4.77683228      -3.62946384
H        4.88508021       3.74888859      -2.22326054
H        3.56180484       4.98023910      -2.20216189
H        3.18357025       3.33717714      -0.61478117
H        1.79368136       1.90761698       0.78162303
H        0.13963438       0.02964506      -2.70422254
H        0.56086385      -2.49005316      -5.15070451
H        2.21314339      -3.09941494      -5.31744619
H        1.46855417      -2.21799435      -6.67271461
H       -2.36384991      -0.06660633      -6.83116500
H       -4.99601120       3.02564083      -7.51625551
H       -1.23166716       3.92030016      -5.63495165
C       -4.26452724      -2.80831465      -4.07499054
O       -3.28549142      -3.37123558      -3.20834898
C       -2.50822917      -2.50426381      -2.48401206
C       -2.64599169      -1.11058375      -2.50815904
C       -1.83162423      -0.30078640      -1.71283455
C       -0.88193420      -0.88193420      -0.88193420
C       -0.73034341      -2.26495189      -0.84776352
C       -1.52645855      -3.09541956      -1.66327503
C       -1.36501113      -4.60388718      -1.62397383
H       -1.68613068      -5.08595050      -2.55435331
O       -2.12966780      -5.10621823      -0.52231318
C       -1.20347327      -5.68484087       0.28446959
N        0.02745950      -5.70343103      -0.11854556
N       -0.02157281      -5.06085658      -1.32100352
C        1.03676679      -4.98270606      -2.19749384
O        0.93568237      -4.51702878      -3.33171314
C        2.34648344      -5.51570493      -1.67898568
C       -1.72227959      -6.22281223       1.54145577
C       -0.84024347      -6.79895208       2.44839459
N       -1.21812483      -7.31000781       3.64689992
C       -2.53725177      -7.23882991       3.94735786
C       -3.48780126      -6.68386008       3.10256923
Br      -5.30414255      -6.62673120       3.60429145
C       -3.07665621      -6.16617264       1.87792653
H       -4.79317875      -3.63317983      -4.56128816
H       -3.79510803      -2.20413977      -4.85798154
H       -5.00324342      -2.22744824      -3.51351418
H       -3.38140325      -0.61825164      -3.13587366
H       -1.95196738       0.77884631      -1.74655423
H        0.01452184      -2.70151827      -0.18650555
H        2.56823571      -5.09581247      -0.69393844
H        3.15131076      -5.22334058      -2.35914482
H        2.30657240      -6.60648968      -1.62335715
H        0.22577508      -6.86867204       2.24218821
H       -2.80756920      -7.65314935       4.91483341
H       -3.80039774      -5.72322635       1.20003943
C       -3.14873923       4.62046000       3.37863319
O       -3.29364292       3.20436400       3.36706906
C       -2.48974458       2.49304852       2.51371193
C       -1.50993604       3.06353664       1.69126180
C       -0.71109320       2.26062271       0.87352928
C       -0.88193420       0.88193420       0.88193420
C       -1.85255121       0.29915565       1.69135196
C       -2.68471504       1.09704422       2.50339388
C       -3.74075351       0.46255705       3.38956158
H       -4.56860228       1.14521445       3.61261774
O       -3.11035992       0.04288734       4.60495195
C       -3.28737134      -1.30321397       4.61968718
N       -3.97272812      -1.83700529       3.65879426
N       -4.30220022      -0.77164446       2.87287716
C       -5.17271421      -0.83810274       1.80882164
O       -5.56091303       0.15575645       1.19639007
C       -5.63426576      -2.22252153       1.43646295
C       -2.66193152      -2.00081851       5.74252303
C       -2.75726853      -3.38556064       5.81909305
N       -2.19854497      -4.12619280       6.80888055
C       -1.51481399      -3.44752404       7.76143386
C       -1.37057554      -2.06753214       7.76604871
Br      -0.39962271      -1.20664442       9.13360402
C       -1.95289485      -1.32855918       6.74056665
H       -3.85162848       5.02157893       4.11443933
H       -3.40370809       5.04932318       2.40419806
H       -2.14093951       4.91279375       3.69047257
H       -1.33857449       4.13454070       1.66241337
H        0.04268193       2.72166803       0.24068920
H       -1.96720249      -0.78228968       1.68858917
H       -4.78005209      -2.89838068       1.33984378
H       -6.14641464      -2.18618568       0.47094568
H       -6.32797888      -2.59777088       2.19306643
H       -3.29426752      -3.96301307       5.06945430
H       -1.07657004      -4.06860888       8.53792399
H       -1.85177028      -0.24742409       6.71923847
C        2.85725962      -3.87358770       4.41698511
O        3.37921436      -3.22176225       3.26409936
C        2.50731218      -2.48388082       2.50531204
C        1.15456344      -2.29471145       2.81545959
C        0.34234347      -1.49969430       2.00320741
C        0.88193420      -0.88193420       0.88193420
C        2.22349690      -1.06145802       0.55810390
C        3.05097423      -1.88145797       1.35272094
C        4.51502383      -2.07479179       1.00305652
H        4.91931851      -3.01707497       1.39004100
O        5.25151927      -0.96910081       1.53757913
C        5.78896636      -0.37178891       0.44308928
N        5.58459514      -0.92172169      -0.71179973
N        4.81232968      -2.00663860      -0.41553537
C        4.47895189      -2.98688273      -1.32240151
O        3.89618112      -4.02323125      -1.00635282
C        4.88220003      -2.71352764      -2.74752051
C        6.54501310       0.85124431       0.70986726
C        7.09854829       1.55272958      -0.35501776
N        7.80114674       2.70476261      -0.21515140
C        7.95364175       3.17218453       1.04726659
C        7.43818085       2.53720578       2.16811704
Br       7.69913885       3.26152860       3.88897205
C        6.72117590       1.35633660       2.00006302
H        3.68211999      -4.40227761       4.90324913
H        2.10141719      -4.61558689       4.14022526
H        2.45953774      -3.14946860       5.13519950
H        0.69708885      -2.75170469       3.68673502
H       -0.70551244      -1.36622573       2.25896201
H        2.62898387      -0.56483414      -0.32031603
H        4.55967644      -1.71405838      -3.05221962
H        4.39816986      -3.43959806      -3.40659328
H        5.96623761      -2.80733057      -2.85029375
H        6.99179971       1.20923608      -1.38185487
H        8.51766815       4.09762555       1.12584255
H        6.30440609       0.84167519       2.86085376
