166
Properties=species:S:1:pos:R:3 pbc="F F F"
C        5.01004940       5.15216009      -3.71533501
O        4.11679854       4.19822869      -4.27976082
C        3.39399175       3.41848103      -3.41374433
C        3.44456718       3.53134457      -2.01853480
C        2.64915817       2.71672905      -1.20907003
C        1.79183823       1.79183823      -1.79183823
C        1.73118338       1.66513636      -3.17645115
C        2.54609696       2.46151965      -4.00724859
C        2.47797820       2.32725260      -5.51735342
H        3.40539963       2.64069416      -6.01005276
O        1.38140294       3.11947442      -5.98703392
C        0.54864884       2.21761204      -6.56729574
N        0.92963471       0.98043156      -6.61416288
N        2.14366365       0.99745602      -5.99202532
C        3.00267563      -0.07704027      -5.94750982
O        4.14635060      -0.00370110      -5.50012213
C        2.45216944      -1.36807729      -6.49382710
C       -0.70813075       2.76735988      -7.07411899
C       -1.64019341       1.91132518      -7.64938125
N       -2.84051736       2.31871074      -8.13275141
C       -3.11652402       3.64136893      -8.03359097
C       -2.24575609       4.56733869      -7.47722158
Br      -2.71448859       6.39077603      -7.38000693
C       -1.01977172       4.12613272      -6.98825339
H        5.49125464       5.68673630      -4.53936787
H        5.79498423       4.65879262      -3.13316456
H        4.47170887       5.89014312      -3.11206592
H        4.09347427       4.24708116      -1.52468519
H        2.70358538       2.81752101      -0.12828099
H        1.04953840       0.93954908      -3.61412657
H        1.47076787      -1.58014913      -6.06060853
H        3.12304741      -2.18951092      -6.22735022
H        2.37845820      -1.30809033      -7.58261864
H       -1.45394589       0.84329770      -7.74106902
H       -4.08610718       3.93554486      -8.42615954
H       -0.32176313       4.83020419      -6.54485567
C       -4.47643819      -3.91947569      -5.48163062
O       -4.26424912      -4.22335147      -4.10718746
C       -3.42368205      -3.40238587      -3.40014918
C       -2.80045149      -2.26495056      -3.92904450
C       -1.98247608      -1.46411890      -3.12836228
C       -1.79183823      -1.79183823      -1.79183823
C       -2.40169169      -2.91993851      -1.25114069
C       -3.20958155      -3.75342298      -2.05186068
C       -3.87848357      -4.98156986      -1.46253078
H       -4.09183252      -5.74744794      -2.21686610
O       -5.09327882      -4.56700218      -0.82763028
C       -4.91240418      -4.89787810       0.47672566
N       -3.81794033      -5.50919985       0.80291101
N       -3.14464022      -5.60908728      -0.37941749
C       -1.98808247      -6.33565709      -0.54940562
O       -1.46959174      -6.52415489      -1.64902499
C       -1.38831622      -6.90081952       0.71121649
C       -5.99933609      -4.50808066       1.37406863
C       -5.88371563      -4.77100116       2.73420377
N       -6.82635786      -4.43454865       3.64996171
C       -7.93126226      -3.80710074       3.17992712
C       -8.13183592      -3.50712384       1.84015559
Br      -9.70213826      -2.62984696       1.27569084
C       -7.15111424      -3.86236293       0.91886278
H       -5.17250164      -4.66131143      -5.88354574
H       -3.54326561      -3.99459205      -6.04908375
H       -4.93733446      -2.93393412      -5.60264933
H       -2.93100327      -1.96940527      -4.96483209
H       -1.50578145      -0.58651819      -3.55708774
H       -2.24516496      -3.15672236      -0.20132674
H       -1.30339910      -6.12463788       1.47680970
H       -0.38333693      -7.27546604       0.49791625
H       -2.00495375      -7.72550816       1.07747540
H       -5.00866619      -5.26870341       3.14694877
H       -8.66554891      -3.54782929       3.93778099
H       -7.28232121      -3.63580336      -0.13517216
C       -4.54635091       5.45432023       3.87687336
O       -4.15102090       4.15141842       4.29234872
C       -3.39458618       3.41151507       3.42011587
C       -2.95079170       3.87031627       2.17333858
C       -2.15539242       3.06081501       1.35874983
C       -1.79183823       1.79183823       1.79183823
C       -2.22629558       1.31965664       3.02681867
C       -3.05097849       2.11381667       3.85007005
C       -3.52206690       1.60175980       5.19875751
H       -4.45463956       2.07514077       5.52636622
O       -2.48552161       1.84631293       6.15607674
C       -2.13793345       0.60708122       6.58854195
N       -2.80151592      -0.40585951       6.12857275
N       -3.69788690       0.16329968       5.27195842
C       -4.72740938      -0.52067284       4.66640864
O       -5.60387926       0.03402534       4.00486702
C       -4.72047215      -2.01287503       4.87032212
C       -1.02659591       0.56846043       7.53829178
C       -0.57567956      -0.66069621       8.00552968
N        0.45736051      -0.80468244       8.87298774
C        1.06335384       0.33368963       9.28810010
C        0.67905223       1.60169049       8.87616592
Br       1.58182229       3.13222521       9.50589146
C       -0.38374580       1.72471187       7.98615672
H       -5.12821845       5.90084433       4.68829604
H       -5.18886769       5.40625309       2.99182063
H       -3.67623862       6.09527819       3.70240110
H       -3.20466858       4.85792869       1.80264335
H       -1.82226342       3.43345863       0.39366533
H       -1.92634903       0.32586757       3.35099745
H       -3.73376520      -2.42619708       4.64365915
H       -5.44340143      -2.47455730       4.19204258
H       -4.99959178      -2.24728746       5.90068218
H       -1.03547427      -1.59487879       7.68982535
H        1.88862570       0.18505474       9.97916817
H       -0.70194301       2.70570177       7.64565195
C        4.05870088      -4.28846893       5.53037469
O        4.28846136      -4.17634364       4.12998305
C        3.42244124      -3.39660511       3.40717076
C        2.36026599      -2.67176521       3.96241535
C        1.54368199      -1.87505718       3.15621808
C        1.79183823      -1.79183823       1.79183823
C        2.84155934      -2.50751215       1.22369939
C        3.65936880      -3.33656500       2.01893141
C        4.80689712      -4.11431090       1.40137619
H        5.06897908      -5.00783981       1.97932767
O        5.93845583      -3.24166614       1.30778930
C        6.18892833      -3.16934494      -0.02471664
N        5.45932139      -3.88528171      -0.82037394
N        4.59304183      -4.51641289       0.02369027
C        3.72554234      -5.51202333      -0.36442049
O        3.04929089      -6.16103883       0.43244190
C        3.65679056      -5.76811070      -1.84698201
C        7.27360852      -2.26557051      -0.40583091
C        7.57535298      -2.09753345      -1.75237341
N        8.54925317      -1.27105599      -2.20936436
C        9.24905761      -0.58402431      -1.27464603
C        9.01814261      -0.69135684       0.08930473
Br      10.04197166       0.30504210       1.31936481
C        8.01404652      -1.54588656       0.53468131
H        4.83938526      -4.93208246       5.94589109
H        3.09240578      -4.76131590       5.73321972
H        4.13613673      -3.31422924       6.02355194
H        2.13884740      -2.70223782       5.02415540
H        0.72305870      -1.32143680       3.60489188
H        3.02363894      -2.42484215       0.15473296
H        3.51181989      -4.83098962      -2.39158224
H        2.80499994      -6.41895591      -2.06306914
H        4.57387521      -6.26000351      -2.18089221
H        7.03100783      -2.62936217      -2.52994916
H       10.01917769       0.07148037      -1.67210010
H        7.81103281      -1.64530405       1.59695987
C       -0.00445707       0.01189536      -1.78238275
H       -0.66409135       0.67374010      -2.43557963
H        0.65740317      -0.63156657      -2.45157240
C       -0.90989263      -0.90692880      -0.91072765
C        0.90977584       0.90977584      -0.90977584
C       -0.00465871       1.77757030       0.00794375
H       -0.66225468       2.44313916      -0.64384735
H        0.64322798       2.43503045       0.67728295
C       -1.78241447       0.00034974      -0.00472694
H       -2.45427497      -0.65498947       0.64260836
H       -2.43311707       0.67328779      -0.65473579
C       -0.91132561       0.90220522       0.91563759
C       -0.01476271      -0.02253852       1.78660255
H       -0.67934791      -0.69751639       2.42135241
H        0.63392994       0.61504881       2.47327442
C        0.01484550      -1.77751727      -0.01636693
H        0.67870853      -2.42144646      -0.68295456
H       -0.62264859      -2.45592969       0.64226336
C        1.78714474       0.01002794       0.00389507
H        2.44202412       0.67113390       0.66197326
H        2.45385902      -0.65136977      -0.64189061
C        0.91606151      -0.90478549       0.90901405
