166
Properties=species:S:1:pos:R:3 pbc="F F F"
C        1.79135118       1.79135118      -1.79135118
C        1.49060944       3.13704578      -1.94495280
C        2.29734551       3.94114574      -2.75661182
C        3.40857862       3.41193720      -3.42634311
N        4.23176205       4.19731647      -4.27259796
C        4.14968603       5.55427752      -4.50885938
O        3.31698264       6.32854112      -4.05081518
C        5.16646726       6.08953198      -5.47079131
C        6.39040794       5.56658076      -5.63047108
C        7.29168223       6.22453394      -6.56967454
C        8.60661118       5.77212630      -6.73448282
C        9.45198178       6.40908328      -7.64492992
C        9.00161699       7.49386554      -8.39435851
C        7.68972933       7.93987850      -8.23676025
C        6.83909009       7.30843017      -7.32720343
O        5.56374407       7.79157500      -7.26672467
C        4.72839740       7.33736549      -6.18828291
C        3.71639764       2.04287057      -3.25732512
C        4.90457232       1.39345495      -3.91532851
C        2.89565281       1.24335947      -2.43865517
H        0.63188371       3.57789137      -1.44545601
H        2.01435626       4.98477796      -2.85078144
H        4.94376409       3.69206649      -4.77728027
H        6.76247718       4.71357920      -5.07540550
H        8.97363299       4.92610783      -6.16009576
H        9.65720023       7.99387151      -9.10307831
H        7.32755711       8.78103147      -8.82207262
H        3.73536785       7.18004105      -6.62420452
H        4.64832172       8.16610198      -5.47549402
H        5.01772364       0.34770729      -3.60748857
H        5.82693996       1.91328009      -3.63361809
H        4.79111553       1.40738109      -5.00420837
H        3.12282036       0.18748795      -2.30445867
C       10.80186619       5.93723513      -7.81455122
C       11.93239439       5.54206230      -7.95660907
Br      13.76036287       4.90310127      -8.18630458
C       -1.79135118      -1.79135118      -1.79135118
C       -1.80162881      -3.16613884      -1.60484037
C       -2.60677632      -3.97156056      -2.41676619
C       -3.40596324      -3.41607407      -3.42482162
N       -4.21553875      -4.20889880      -4.27723892
C       -4.42050737      -5.57221192      -4.22010364
O       -3.90464501      -6.35821191      -3.43348201
C       -5.33126530      -6.11785409      -5.27767117
C       -6.33757965      -5.42304617      -5.82683395
C       -7.17260897      -6.10214546      -6.81113627
C       -8.28153236      -5.45809375      -7.37359420
C       -9.06387171      -6.12105507      -8.32106820
C       -8.75369660      -7.42092421      -8.71522024
C       -7.64472482      -8.06005461      -8.16158864
C       -6.85853799      -7.40356365      -7.21262204
O       -5.77455868      -8.09446685      -6.75301822
C       -5.07843046      -7.56265226      -5.61296308
C       -3.39973057      -2.01396397      -3.60289879
C       -4.24523029      -1.32648884      -4.64163666
C       -2.58372737      -1.21391155      -2.78002853
H       -1.18828131      -3.63009476      -0.83685503
H       -2.57225529      -5.04131544      -2.23634493
H       -4.67277760      -3.71327928      -5.02705396
H       -6.59192360      -4.40574417      -5.55379412
H       -8.53649729      -4.44372674      -7.07961255
H       -9.36134833      -7.94144578      -9.45135594
H       -7.39108413      -9.07150502      -8.46807205
H       -4.01197934      -7.71029152      -5.81734256
H       -5.34055867      -8.19349224      -4.75586681
H       -4.15899028      -0.23575904      -4.57817018
H       -5.30251436      -1.57451411      -4.49680968
H       -3.93055868      -1.62531914      -5.64682718
H       -2.56993235      -0.13359997      -2.91123465
C      -10.20039545      -5.45293729      -8.90031981
C      -11.15223407      -4.89338865      -9.38544304
Br     -12.69127663      -3.98864582     -10.16984626
C       -1.79135118       1.79135118       1.79135118
C       -2.87187375       1.23781582       2.46291845
C       -3.68025450       2.04863285       3.26621573
C       -3.42288746       3.41901771       3.40495376
N       -4.23722062       4.26980345       4.19465241
C       -5.30865292       3.91552736       4.98864266
O       -5.77715269       2.79133341       5.12785283
C       -5.97471474       5.05700977       5.69506605
C       -5.33578392       6.17038486       6.08129099
C       -6.10463637       7.17738156       6.80387277
C       -5.48479569       8.33269336       7.29573126
C       -6.23898283       9.28982174       7.97719040
C       -7.60622276       9.10872929       8.17488900
C       -8.22581061       7.96231393       7.67824354
C       -7.47756992       7.00033427       6.99681950
O       -8.17542593       5.92967658       6.51694124
C       -7.42214636       4.80922064       6.02267880
C       -2.31428031       3.97513778       2.72717524
C       -1.94507367       5.43044109       2.83784103
C       -1.50876642       3.14867037       1.92023067
H       -3.10382560       0.17994766       2.37145783
H       -4.51777856       1.56915672       3.76298037
H       -4.01577620       5.25236280       4.14497184
H       -4.27806836       6.34729629       5.92609723
H       -4.42011828       8.49126339       7.14845492
H       -8.19684980       9.85070336       8.70659690
H       -9.29316336       7.81578233       7.82171551
H       -7.94805015       4.46752574       5.12403754
H       -7.50154656       4.01478822       6.77358294
H       -1.01691948       5.65569654       2.30030349
H       -1.78379709       5.70350133       3.88653973
H       -2.73505087       6.05680876       2.41084536
H       -0.65455530       3.56808467       1.39212701
C       -5.59813573      10.47859619       8.47692062
C       -5.06142628      11.47419480       8.89544468
Br      -4.19361250      13.08399354       9.57216269
C        1.79135118      -1.79135118       1.79135118
C        2.75367431      -1.21270126       2.60623245
C        3.56271907      -2.02302184       3.40936216
C        3.42406107      -3.41736729       3.40543058
N        4.24392327      -4.26554759       4.19220562
C        5.20542692      -3.89680223       5.11059379
O        5.55278075      -2.75462950       5.38892869
C        5.91261434      -5.03821865       5.77595758
C        5.35017765      -6.23353609       6.00374604
C        6.14532696      -7.23426463       6.70629911
C        5.59670811      -8.47944953       7.03706267
C        6.37615766      -9.42811381       7.70172350
C        7.69840208      -9.14988670       8.04155226
C        8.24801458      -7.91309894       7.70525457
C        7.47400536      -6.95911649       7.04160184
O        8.10691980      -5.79233933       6.72278461
C        7.29701558      -4.69914752       6.25788270
C        2.43465540      -4.00040471       2.58153322
C        2.19543230      -5.48593030       2.53199319
C        1.62729912      -3.17397286       1.77639548
H        2.89237937      -0.13495213       2.62789960
H        4.30593369      -1.52225815       4.02172381
H        4.12067085      -5.25446184       4.03797815
H        4.33091661      -6.48508287       5.73546240
H        4.56814326      -8.71414243       6.77755089
H        8.30827006      -9.88510955       8.56077044
H        9.28068797      -7.68976097       7.96021226
H        7.86360922      -4.23089033       5.44511387
H        7.23693759      -3.97476513       7.07821500
H        1.34197484      -5.73847389       1.89247077
H        1.97121946      -5.86894054       3.53367815
H        3.07433337      -5.99949880       2.12887282
H        0.86458521      -3.61365204       1.13652973
C        5.80916616     -10.70902826       8.03545813
C        5.33431077     -11.78179412       8.31496087
Br       4.56650977     -13.51636577       8.76689318
C       -0.00445707       0.01189536      -1.78238275
H       -0.66409135       0.67374010      -2.43557963
H        0.65740317      -0.63156657      -2.45157240
C       -0.90989263      -0.90692880      -0.91072765
C        0.90977584       0.90977584      -0.90977584
C       -0.00465871       1.77757030       0.00794375
H       -0.66225468       2.44313916      -0.64384735
H        0.64322798       2.43503045       0.67728295
C       -1.78241447       0.00034974      -0.00472694
H       -2.45427497      -0.65498947       0.64260836
H       -2.43311707       0.67328779      -0.65473579
C       -0.91132561       0.90220522       0.91563759
C       -0.01476271      -0.02253852       1.78660255
H       -0.67934791      -0.69751639       2.42135241
H        0.63392994       0.61504881       2.47327442
C        0.01484550      -1.77751727      -0.01636693
H        0.67870853      -2.42144646      -0.68295456
H       -0.62264859      -2.45592969       0.64226336
C        1.78714474       0.01002794       0.00389507
H        2.44202412       0.67113390       0.66197326
H        2.45385902      -0.65136977      -0.64189061
C        0.91606151      -0.90478549       0.90901405
