145
Properties=species:S:1:pos:R:3 pbc="F F F"
C        0.00000000       0.00000000       0.00000000
C        0.88144715       0.88144715      -0.88144715
C        0.58070542       2.22714176      -1.03504878
C        1.38744148       3.03124172      -1.84670779
C        2.49867460       2.50203318      -2.51643909
N        3.32185803       3.28741244      -3.36269393
C        3.23978201       4.64437350      -3.59895535
O        2.40707861       5.41863709      -3.14091115
C        4.25656324       5.17962796      -4.56088729
C        5.48050391       4.65667673      -4.72056706
C        6.38177820       5.31462992      -5.65977052
C        7.69670716       4.86222228      -5.82457880
C        8.54207775       5.49917925      -6.73502589
C        8.09171297       6.58396152      -7.48445449
C        6.77982531       7.02997448      -7.32685622
C        5.92918606       6.39852615      -6.41729940
O        4.65384005       6.88167098      -6.35682065
C        3.81849338       6.42746146      -5.27837889
C        2.80649361       1.13296655      -2.34742110
C        3.99466830       0.48355093      -3.00542449
C        1.98574878       0.33345545      -1.52875115
H       -0.27802031       2.66798735      -0.53555199
H        1.10445223       4.07487393      -1.94087742
H        4.03386006       2.78216247      -3.86737624
H        5.85257315       3.80367517      -4.16550148
H        8.06372897       4.01620380      -5.25019174
H        8.74729621       7.08396748      -8.19317428
H        6.41765309       7.87112745      -7.91216860
H        2.82546382       6.27013703      -5.71430050
H        3.73841770       7.25619795      -4.56559000
H        4.10781962      -0.56219673      -2.69758454
H        4.91703594       1.00337607      -2.72371407
H        3.88121151       0.49747707      -4.09430435
H        2.21291633      -0.72241607      -1.39455465
C        9.89196217       5.02733110      -6.90464720
C       11.02249037       4.63215828      -7.04670504
Br      12.85045885       3.99319724      -7.27640056
C       -0.88144715      -0.88144715      -0.88144715
C       -1.60126396      -1.92462005      -0.31701194
C       -2.40449434      -2.73322332      -1.12767333
C       -2.49517903      -2.51339216      -2.50857567
N       -3.28383122      -3.32954781      -3.35858538
C       -4.11984868      -4.36606669      -2.99719549
O       -4.30602563      -4.79613096      -1.86447028
C       -4.81230375      -5.04529928      -4.13947546
C       -5.14626812      -4.42922996      -5.28224962
C       -5.86191187      -5.20662831      -6.28763845
C       -6.30076361      -4.60780267      -7.47494196
C       -6.97633981      -5.37024824      -8.42969486
C       -7.22044922      -6.72501624      -8.21466351
C       -6.77654640      -7.32399816      -7.03611145
C       -6.10132698      -6.56734627      -6.07633836
O       -5.67431940      -7.24632289      -4.97168939
C       -5.19058798      -6.47436705      -3.85937870
C       -1.76823281      -1.44241963      -3.07622882
C       -1.82500492      -1.11423439      -4.54440441
C       -0.96190357      -0.63631504      -2.24973677
H       -1.54788895      -2.12710833       0.74947826
H       -2.94015649      -3.54097158      -0.63907551
H       -3.19871425      -3.13942023      -4.34526429
H       -4.95409339      -3.38234035      -5.48531607
H       -6.11682661      -3.55317160      -7.66012630
H       -7.74777396      -7.32193932      -8.95472469
H       -6.95641038      -8.38177714      -6.86276160
H       -4.31863391      -7.01582428      -3.47544315
H       -5.96650582      -6.50770610      -3.08599374
H       -1.25331987      -0.20945587      -4.78043169
H       -2.85990352      -0.93061174      -4.85361082
H       -1.40388167      -1.93493636      -5.13417489
H       -0.39618651       0.18900042      -2.67786882
C       -7.42144145      -4.75121438      -9.65128465
C       -7.79421407      -4.23277352     -10.67436609
Br      -8.39695587      -3.39449851     -12.32860227
C       -0.88144715       0.88144715       0.88144715
C       -2.26038535       0.73128306       0.85122754
C       -3.06563165       1.54321150       1.65654785
C       -2.50567559       2.51517298       2.49629830
N       -3.29740429       3.36711633       3.30744379
C       -4.66669799       3.34090134       3.47551153
O       -5.45880379       2.58901466       2.91880841
C       -5.20879555       4.38867857       4.39960436
C       -4.52697362       4.89301051       5.43776357
C       -5.20232101       5.87307226       6.28078537
C       -4.57359980       6.38938458       7.42052386
C       -5.23237406       7.33357713       8.21033171
C       -6.51292985       7.76997328       7.87722585
C       -7.13650367       7.26235187       6.73780046
C       -6.48413179       6.31693892       5.94394090
O       -7.15767535       5.90400860       4.83064773
C       -6.63722420       4.76861881       4.11849072
C       -1.09975908       2.65607956       2.53104262
C       -0.40834085       3.65400240       3.42130046
C       -0.29987323       1.83363732       1.71444482
H       -2.72759932      -0.00800644       0.20592615
H       -4.13840017       1.39219589       1.58960752
H       -2.79487535       4.09144338       3.79708004
H       -3.52417838       4.58658557       5.71098586
H       -3.57429540       6.06209403       7.69373508
H       -7.03018971       8.50370849       8.49053977
H       -8.13260542       7.60202396       6.46631975
H       -6.75117688       5.00434559       3.05437889
H       -7.29674485       3.92207586       4.34138494
H        0.68228807       3.56386296       3.36163254
H       -0.68799826       3.48852445       4.46760337
H       -0.67262934       4.67456802       3.12579556
H        0.78345467       1.93644049       1.73206909
C       -4.57990163       7.86531942       9.37871942
C       -4.03345596       8.31065359      10.35724414
Br      -3.14989954       9.03072128      11.93943583
C        0.88144715      -0.88144715       0.88144715
C        1.85457545      -0.30403495       1.68428555
C        2.66356404      -1.11440135       2.48742560
C        2.51406329      -2.50760824       2.49547533
N        3.33344696      -3.35604359       3.28247385
C        4.30493643      -2.98771356       4.19046087
O        4.66330952      -1.84616684       4.45715050
C        5.00842703      -4.12942818       4.85922327
C        4.43853007      -5.31850661       5.10071102
C        5.23135986      -6.31994125       5.80487753
C        4.67569827      -7.55819307       6.14961690
C        5.45293692      -8.50773786       6.81560812
C        6.77991797      -8.23723166       7.14297935
C        7.33646469      -7.00742718       6.79276414
C        6.56471519      -6.05259926       6.12769716
O        7.20415223      -4.89331698       5.79486246
C        6.39914461      -3.79746507       5.32772404
C        1.51374954      -3.08926584       1.68386588
C        1.26262550      -4.57321477       1.64780345
C        0.70655864      -2.26281794       0.87857881
H        2.00180511       0.77273211       1.69644602
H        3.41540882      -0.61472862       3.09006615
H        3.20132163      -4.34513072       3.13694643
H        3.41528061      -5.56414851       4.84232068
H        3.64334496      -7.78684127       5.89993828
H        7.38810420      -8.97315036       7.66318342
H        8.37280256      -6.79020069       7.03794588
H        6.96298105      -3.33997485       4.50694545
H        6.35110739      -3.06629083       6.14280743
H        0.40225840      -4.82403105       1.01691798
H        1.04328812      -4.94667492       2.65416304
H        2.13433505      -5.09675421       1.24190366
H       -0.06452532      -2.70147081       0.24810942
C        4.87864976      -9.78155032       7.16374039
C        4.39768427     -10.84836826       7.45530116
Br       3.62000374     -12.57332263       7.92673028
