162
Properties=species:S:1:pos:R:3 pbc="F F F"
C        1.79202781       1.79202781      -1.79202781
C        3.17696620       1.73275814      -1.66202576
C        3.97808125       2.54739750      -2.45955614
C        3.39280648       3.41803572      -3.38153001
C        1.99613483       3.47878509      -3.52904780
C        1.19991548       2.65570730      -2.71541287
C        1.33685266       4.44354815      -4.49670806
H        0.33128661       4.07095128      -4.73593924
N        2.09543429       4.51941502      -5.74185246
C        1.78746858       5.50346959      -6.61617226
N        1.99202243       5.60053931      -7.90707327
N        1.39429303       6.78226607      -8.29838241
N        0.82298704       7.39682611      -7.26860406
N        1.12505678       6.63134355      -6.20953274
C        0.59791417       6.83624318      -4.86899108
H       -0.47380866       6.61174586      -4.96244833
C        1.23129819       5.84508032      -3.87297154
C        0.77435907       8.26163466      -4.36789584
C        1.99235430       8.95060438      -4.50436651
C        2.14204119      10.24312224      -3.99711448
C        1.08346879      10.86256539      -3.33560639
C       -0.12387274      10.18594251      -3.18609323
Br      -1.55789550      11.01773968      -2.27719360
C       -0.28375837       8.89545209      -3.69416153
H        3.64008767       1.06120546      -0.94413984
H        5.06049064       2.50866999      -2.36160917
H        4.03766963       4.05333568      -3.98798394
H        0.11563589       2.69024477      -2.79679094
H        2.34783103       3.62166061      -6.15132681
H        2.23350048       6.19142349      -3.58122901
H        0.63846771       5.81446180      -2.94907095
H        2.83827706       8.49241548      -5.01547091
H        3.08688944      10.76758276      -4.12051515
H        1.21019892      11.86825433      -2.94392848
H       -1.23527500       8.38430799      -3.56320822
C       -1.79202781      -1.79202781      -1.79202781
C       -3.13110629      -1.46046318      -1.98018063
C       -3.93581144      -2.27377270      -2.77545075
C       -3.40031993      -3.41455300      -3.37749928
C       -2.04719084      -3.75344817      -3.20332872
C       -1.24820525      -2.92765511      -2.39517529
C       -1.45311017      -5.00768084      -3.81631785
H       -0.36434326      -4.88122922      -3.89260464
N       -1.97610935      -5.21739776      -5.16319466
C       -1.73994144      -6.40728190      -5.75988708
N       -1.72782257      -6.74586714      -7.02594530
N       -1.34267473      -8.07151066      -7.06075612
N       -1.11180092      -8.53799327      -5.83862303
N       -1.42288717      -7.51855118      -5.02449471
C       -1.20022393      -7.51625137      -3.58667312
H       -0.10623562      -7.51184781      -3.48230211
C       -1.76873464      -6.23510189      -2.94551352
C       -1.76983375      -8.74318703      -2.89086879
C       -3.06468421      -9.21745035      -3.16519061
C       -3.58070543     -10.32030391      -2.48126858
C       -2.81785141     -10.95853158      -1.50525757
C       -1.53823866     -10.49137335      -1.21855099
Br      -0.50548565     -11.34612681       0.11457468
C       -1.01272885      -9.39245725      -1.90066915
H       -3.55655371      -0.57699298      -1.51188628
H       -4.98338638      -2.02272201      -2.92466141
H       -4.04992639      -4.04185461      -3.98720826
H       -0.20086782      -3.17140068      -2.23040310
H       -1.94947419      -4.40047652      -5.77086774
H       -2.85788148      -6.32549639      -2.82277511
H       -1.35752458      -6.10945587      -1.93502001
H       -3.68544706      -8.73893620      -3.92178020
H       -4.57987140     -10.68244081      -2.71267514
H       -3.22867076     -11.81547717      -0.97823379
H       -0.01141474      -9.04263505      -1.65819142
C       -1.79202781       1.79202781       1.79202781
C       -1.87261219       3.15897296       1.54016496
C       -2.66850183       3.96250030       2.35403277
C       -3.37855482       3.39788599       3.41593140
C       -3.31327265       2.01742922       3.67326585
C       -2.50335351       1.21951691       2.84816523
C       -4.04555246       1.38805771       4.84349870
H       -4.18165943       0.31704320       4.63947450
N       -5.36782479       1.98628018       5.00259679
C       -6.05697477       1.71625610       6.13387956
N       -7.34119424       1.76807447       6.39036630
N       -7.48939313       1.30331597       7.68223241
N       -6.31843590       0.96172981       8.20825151
N       -5.41952767       1.28096573       7.26543966
C       -4.00172314       0.96259585       7.33882943
H       -3.96648871      -0.13347702       7.26737385
C       -3.24119328       1.56630726       6.14184951
C       -3.35556855       1.40556027       8.64276075
C       -3.57899579       2.68345094       9.18487845
C       -2.93969838       3.08167996      10.36089957
C       -2.05892376       2.21612152      11.00659528
C       -1.82268200       0.95212175      10.47335925
Br      -0.61791303      -0.21988191      11.33900667
C       -2.46104668       0.54407484       9.30073373
H       -1.32000592       3.60679110       0.71863595
H       -2.73411319       5.03148573       2.16517089
H       -3.98693224       4.04621292       4.04584409
H       -2.42174017       0.15018096       3.03075046
H       -5.91958749       2.05218596       4.14904499
H       -3.05638125       2.63684654       6.31292519
H       -2.25248051       1.09674260       6.05277736
H       -4.26099764       3.38267984       8.70248597
H       -3.13149063       4.06932841      10.77416831
H       -1.56593406       2.53566760      11.92078007
H       -2.25919501      -0.44723452       8.90028072
C        1.79202781      -1.79202781       1.79202781
C        1.54262478      -1.86952287       3.15960246
C        2.35650712      -2.66543230       3.96309547
C        3.41596822      -3.37858938       3.39781461
C        3.67078781      -3.31643272       2.01674720
C        2.84571019      -2.50646165       1.21886381
C        4.83841654      -4.05214712       1.38654520
H        4.63208643      -4.18990676       0.31618394
N        4.99613501      -5.37357752       1.98698924
C        6.12558290      -6.06540231       1.71612522
N        6.37971791      -7.35000846       1.76990863
N        7.67040831      -7.50156254       1.30297066
N        8.19800639      -6.33226658       0.95814425
N        7.25752294      -5.43095066       1.27745948
C        7.33300860      -4.01389890       0.95624092
H        7.25952558      -3.98061894      -0.13975899
C        6.13863774      -3.24993237       1.56077994
C        8.63901444      -3.36939384       1.39548130
C        9.18314637      -3.59141864       2.67276017
C       10.36114388      -2.95361161       3.06752243
C       11.00686311      -2.07572548       2.19905197
C       10.47166381      -1.84087669       0.93562250
Br      11.33736631      -0.64000237      -0.24033090
C        9.29704490      -2.47777622       0.53103414
H        0.72300885      -1.31449415       3.60792997
H        2.16956391      -2.72864320       5.03256270
H        4.04595718      -3.98693175       4.04610032
H        3.02640663      -2.42723750       0.14902747
H        4.14165972      -5.92358110       2.05557763
H        6.31211146      -3.06340578       2.63063574
H        6.05055455      -2.26194872       1.08949719
H        8.70079105      -4.27116214       3.37421026
H       10.77593293      -3.14430895       4.05474548
H       11.92259576      -1.58387528       2.51591069
H        8.89508373      -2.27705097      -0.45989349
C       -0.00445707       0.01189536      -1.78238275
H       -0.66409135       0.67374010      -2.43557963
H        0.65740317      -0.63156657      -2.45157240
C       -0.90989263      -0.90692880      -0.91072765
C        0.90977584       0.90977584      -0.90977584
C       -0.00465871       1.77757030       0.00794375
H       -0.66225468       2.44313916      -0.64384735
H        0.64322798       2.43503045       0.67728295
C       -1.78241447       0.00034974      -0.00472694
H       -2.45427497      -0.65498947       0.64260836
H       -2.43311707       0.67328779      -0.65473579
C       -0.91132561       0.90220522       0.91563759
C       -0.01476271      -0.02253852       1.78660255
H       -0.67934791      -0.69751639       2.42135241
H        0.63392994       0.61504881       2.47327442
C        0.01484550      -1.77751727      -0.01636693
H        0.67870853      -2.42144646      -0.68295456
H       -0.62264859      -2.45592969       0.64226336
C        1.78714474       0.01002794       0.00389507
H        2.44202412       0.67113390       0.66197326
H        2.45385902      -0.65136977      -0.64189061
C        0.91606151      -0.90478549       0.90901405
