170
Properties=species:S:1:pos:R:3 pbc="F F F"
C        1.79202781       1.79202781      -1.79202781
C        3.17696620       1.73275814      -1.66202576
C        3.97808125       2.54739750      -2.45955614
C        3.39280648       3.41803572      -3.38153001
C        1.99613483       3.47878509      -3.52904780
C        1.19991548       2.65570730      -2.71541287
C        1.33685266       4.44354815      -4.49670806
H        0.33128661       4.07095128      -4.73593924
N        2.09543429       4.51941502      -5.74185246
C        1.78746858       5.50346959      -6.61617226
N        1.99202243       5.60053931      -7.90707327
N        1.39429303       6.78226607      -8.29838241
N        0.82298704       7.39682611      -7.26860406
N        1.12505678       6.63134355      -6.20953274
C        0.59791417       6.83624318      -4.86899108
H       -0.47380866       6.61174586      -4.96244833
C        1.23129819       5.84508032      -3.87297154
C        0.77435907       8.26163466      -4.36789584
C        1.99235430       8.95060438      -4.50436651
C        2.14204119      10.24312224      -3.99711448
C        1.08346879      10.86256539      -3.33560639
C       -0.12387274      10.18594251      -3.18609323
C       -0.28375837       8.89545209      -3.69416153
H        3.64008767       1.06120546      -0.94413984
H        5.06049064       2.50866999      -2.36160917
H        4.03766963       4.05333568      -3.98798394
H        0.11563589       2.69024477      -2.79679094
H        2.34783103       3.62166061      -6.15132681
H        2.23350048       6.19142349      -3.58122901
H        0.63846771       5.81446180      -2.94907095
H        2.83827706       8.49241548      -5.01547091
H        3.08688944      10.76758276      -4.12051515
H        1.21019892      11.86825433      -2.94392848
H       -1.23527500       8.38430799      -3.56320822
C       -1.21610897      10.81948825      -2.49382172
C       -2.13085680      11.35008279      -1.91404433
Br      -3.60992669      12.20800930      -0.97659333
C       -1.79202781      -1.79202781      -1.79202781
C       -3.17396572      -1.62350356      -1.77428082
C       -3.97638586      -2.43778959      -2.57085944
C       -3.39557087      -3.41702111      -3.37978023
C       -2.00082135      -3.58921654      -3.41392983
C       -1.20377314      -2.76494018      -2.60232233
C       -1.35042060      -4.67090261      -4.25578566
H       -0.30443323      -4.39117716      -4.44256673
N       -2.02116067      -4.78827661      -5.54726449
C       -1.72831144      -5.85667220      -6.32212678
N       -1.84647888      -6.03848504      -7.61467109
N       -1.31550574      -7.28685701      -7.87257876
N       -0.86899373      -7.85926954      -6.76015395
N       -1.18618482      -6.99433663      -5.78541162
C       -0.77418975      -7.13213837      -4.39682029
H        0.31563842      -6.99314667      -4.42287729
C       -1.39883035      -6.02386469      -3.52665500
C       -1.09605594      -8.49806169      -3.80977194
C       -2.35079106      -9.10622429      -3.99030983
C       -2.63619986     -10.34146354      -3.40461451
C       -1.67906412     -10.98226909      -2.62030735
C       -0.43681657     -10.38460850      -2.42673792
C       -0.14136450      -9.15218142      -3.01230934
H       -3.63406590      -0.86682822      -1.14453885
H       -5.05677569      -2.31391407      -2.56008005
H       -4.04245328      -4.04939966      -3.98713632
H       -0.12238963      -2.88350018      -2.59678178
H       -2.17318693      -3.90912571      -6.03850581
H       -2.44321263      -6.27365790      -3.28928245
H       -0.87333486      -5.96445695      -2.56420866
H       -3.11976459      -8.62940147      -4.59699740
H       -3.60751410     -10.80465283      -3.56282042
H       -1.91112392     -11.94288601      -2.16837180
H        0.83500669      -8.70212822      -2.84511969
C        0.55049172     -11.03947394      -1.60821878
C        1.37736242     -11.58792375      -0.92270899
Br       2.71434240     -12.47472069       0.18570235
C       -1.79202781       1.79202781       1.79202781
C       -1.91901196       3.14834889       1.50438926
C       -2.71461803       3.95238834       2.31802852
C       -3.37806481       3.39894788       3.41535952
C       -3.26582766       2.02885507       3.70928499
C       -2.45668005       1.23049539       2.88386021
C       -3.94658081       1.41321013       4.91731792
H       -4.05741838       0.33336589       4.74739285
N       -5.28057227       1.97848487       5.09764463
C       -5.92968148       1.72198246       6.25544648
N       -7.20716970       1.74516871       6.54729659
N       -7.30565155       1.31387649       7.85541347
N       -6.11105410       1.02054188       8.35682125
N       -5.24849389       1.33752728       7.37991189
C       -3.82060090       1.06125813       7.42128939
H       -3.75579855      -0.03500132       7.37958831
C       -3.11163024       1.65128421       6.18643560
C       -3.15120209       1.55956098       8.69312649
C       -3.39609854       2.84578667       9.20543996
C       -2.73584581       3.29551064      10.35092147
C       -1.81273739       2.47394644      10.99495673
C       -1.55518838       1.20221553      10.49075909
C       -2.21413095       0.74280565       9.34891866
H       -1.40278223       3.58760547       0.65504527
H       -2.81628608       5.01322640       2.10125733
H       -3.98699050       4.04786336       4.04413539
H       -2.33918873       0.16957454       3.09390832
H       -5.85770584       2.00426970       4.25884291
H       -2.95303652       2.73106847       6.32204799
H       -2.11267558       1.20723554       6.08208934
H       -4.11122395       3.51143338       8.72350613
H       -2.94437588       4.28890061      10.74171087
H       -1.30374252       2.83340298      11.88523622
H       -1.99508495      -0.25359095       8.97074720
C       -0.59409784       0.35499016      11.14811300
C        0.21081548      -0.35456109      11.69864689
Br       1.51229225      -1.50184544      12.58881364
C        1.79202781      -1.79202781       1.79202781
C        1.36309684      -2.13805030       3.07060297
C        2.17541463      -2.93264067       3.87697959
C        3.41221139      -3.37643746       3.40372336
C        3.85101202      -3.04226134       2.11069436
C        3.02456055      -2.23656041       1.30991470
C        5.20652606      -3.48116664       1.58941616
H        5.18496146      -3.46216046       0.49105520
N        5.49903973      -4.84862404       2.00903801
C        6.75749822      -5.31185780       1.83775440
N        7.21727375      -6.53577947       1.74658178
N        8.56888793      -6.41551078       1.49054280
N        8.93297159      -5.14025256       1.41519307
N        7.81571037      -4.45366470       1.69655800
C        7.69338923      -3.00688333       1.60287586
H        7.77571637      -2.79747638       0.52719278
C        6.31071732      -2.53994935       2.09868338
C        8.79162654      -2.26387663       2.34838640
C        9.17382009      -2.61969170       3.65381338
C       10.15495063      -1.89423898       4.33308831
C       10.76030043      -0.79605788       3.72528225
C       10.38259775      -0.42881765       2.43674760
C        9.40603507      -1.15121137       1.74860881
H        0.40411824      -1.79337455       3.44794018
H        1.84831693      -3.20459904       4.87785384
H        4.03582869      -3.98846707       4.05469349
H        3.34288299      -1.94984527       0.30994333
H        4.75062965      -5.52074607       1.84944273
H        6.29198918      -2.51613567       3.19802813
H        6.12434483      -1.50937958       1.76827606
H        8.71804828      -3.47240756       4.15570761
H       10.44799290      -2.18869696       5.33829749
H       11.52221932      -0.23768361       4.26247880
H        9.12431469      -0.84447945       0.74344707
C       10.99891458       0.71183960       1.81012602
C       11.51507992       1.66714005       1.28533045
Br      12.34967563       3.21178008       0.43678040
C       -0.00445707       0.01189536      -1.78238275
H       -0.66409135       0.67374010      -2.43557963
H        0.65740317      -0.63156657      -2.45157240
C       -0.90989263      -0.90692880      -0.91072765
C        0.90977584       0.90977584      -0.90977584
C       -0.00465871       1.77757030       0.00794375
H       -0.66225468       2.44313916      -0.64384735
H        0.64322798       2.43503045       0.67728295
C       -1.78241447       0.00034974      -0.00472694
H       -2.45427497      -0.65498947       0.64260836
H       -2.43311707       0.67328779      -0.65473579
C       -0.91132561       0.90220522       0.91563759
C       -0.01476271      -0.02253852       1.78660255
H       -0.67934791      -0.69751639       2.42135241
H        0.63392994       0.61504881       2.47327442
C        0.01484550      -1.77751727      -0.01636693
H        0.67870853      -2.42144646      -0.68295456
H       -0.62264859      -2.45592969       0.64226336
C        1.78714474       0.01002794       0.00389507
H        2.44202412       0.67113390       0.66197326
H        2.45385902      -0.65136977      -0.64189061
C        0.91606151      -0.90478549       0.90901405
