149
Properties=species:S:1:pos:R:3 pbc="F F F"
C        0.00000000       0.00000000       0.00000000
C        0.88212379       0.88212379      -0.88212379
C        2.26706218       0.82285411      -0.75212174
C        3.06817723       1.63749348      -1.54965212
C        2.48290246       2.50813170      -2.47162598
C        1.08623081       2.56888107      -2.61914377
C        0.29001146       1.74580328      -1.80550884
C        0.42694863       3.53364412      -3.58680403
H       -0.57861742       3.16104726      -3.82603521
N        1.18553027       3.60951099      -4.83194844
C        0.87756456       4.59356557      -5.70626823
N        1.08211840       4.69063528      -6.99716925
N        0.48438900       5.87236204      -7.38847839
N       -0.08691698       6.48692209      -6.35870004
N        0.21515275       5.72143953      -5.29962871
C       -0.31198986       5.92633915      -3.95908705
H       -1.38371268       5.70184184      -4.05254430
C        0.32139417       4.93517629      -2.96306751
C       -0.13554496       7.35173064      -3.45799182
C        1.08245027       8.04070035      -3.59446248
C        1.23213716       9.33321821      -3.08721046
C        0.17356476       9.95266136      -2.42570237
C       -1.03377677       9.27603849      -2.27618920
C       -1.19366239       7.98554807      -2.78425750
H        2.73018365       0.15130144      -0.03423581
H        4.15058662       1.59876597      -1.45170515
H        3.12776561       3.14343165      -3.07807992
H       -0.79426814       1.78034075      -1.88688691
H        1.43792700       2.71175659      -5.24142279
H        1.32359646       5.28151947      -2.67132499
H       -0.27143631       4.90455777      -2.03916693
H        1.92837304       7.58251146      -4.10556689
H        2.17698541       9.85767874      -3.21061113
H        0.30029490      10.95835030      -2.03402446
H       -2.14517903       7.47440397      -2.65330419
C       -2.12601299       9.90958422      -1.58391770
C       -3.04076083      10.44017877      -1.00414031
Br      -4.51983071      11.29810528      -0.06668931
C       -0.88212379      -0.88212379      -0.88212379
C       -2.01611614      -1.48332366      -0.34259823
C       -2.81170722      -2.29694969      -1.14666591
C       -2.47056422      -2.50757690      -2.48451901
C       -1.33395287      -1.89733580      -3.04296697
C       -0.53783327      -1.08341022      -2.22008008
C       -0.92290707      -2.14168952      -4.48280020
H       -0.28467330      -1.31059468      -4.81319707
N       -2.09574709      -2.17977549      -5.35146711
C       -1.93562607      -2.62330817      -6.61846412
N       -2.65278706      -2.42058398      -7.69655190
N       -1.97543161      -3.04390603      -8.72589180
N       -0.85589117      -3.61156308      -8.29125089
N       -0.86554818      -3.40451854      -6.96615427
C        0.23501906      -3.73481096      -6.07364444
H        1.03703634      -3.04240520      -6.36530461
C       -0.14918413      -3.46484993      -4.60560391
C        0.72222811      -5.16745833      -6.22894728
C       -0.17052745      -6.25160633      -6.29547932
C        0.30343111      -7.56152089      -6.39447606
C        1.67439553      -7.81025488      -6.41606914
C        2.56748919      -6.74509209      -6.34084803
C        2.10240688      -5.43214038      -6.24640968
H       -2.28616990      -1.32799485       0.69844386
H       -3.69739788      -2.77219811      -0.73146174
H       -3.10119238      -3.15550851      -3.09257630
H        0.35556506      -0.60860198      -2.61992259
H       -2.75244582      -1.41120218      -5.22745838
H       -0.76893950      -4.28747417      -4.22002724
H        0.75394303      -3.44508607      -3.98114535
H       -1.24761177      -6.08915648      -6.27968313
H       -0.39979517      -8.38895519      -6.45652492
H        2.03314247      -8.83315109      -6.49266104
H        2.81850911      -4.61524094      -6.18579731
C        3.98473285      -6.99982124      -6.35240053
C        5.17167442      -7.21315691      -6.36207576
Br       7.09085855      -7.55810264      -6.37771978
C       -0.88212379       0.88212379       0.88212379
C       -0.55115929       1.06940599       2.22147275
C       -1.36447372       1.86468060       3.02616850
C       -2.50466086       2.46760268       2.49039660
C       -2.84294128       2.29431388       1.13700049
C       -2.01715301       1.48614648       0.33802409
C       -4.09654452       2.90826624       0.54258603
H       -3.96948559       2.98505438      -0.54607492
N       -4.30583225       4.25497950       1.06617795
C       -5.49528204       4.85241513       0.82970119
N       -5.83320119       6.11865582       0.81806592
N       -7.15862544       6.15435839       0.43224561
N       -7.62562435       4.93258911       0.20049169
N       -6.60676891       4.11776747       0.51168461
C       -6.60510218       2.68006109       0.28827307
H       -6.60018269       2.57625783      -0.80576706
C       -5.32458350       2.03793756       0.85711691
C       -7.83269700       1.98459979       0.85688071
C       -8.30749229       2.25849410       2.15162672
C       -9.41097091       1.57487831       2.66671662
C      -10.04930927       0.59959777       1.90302145
C       -9.58163346       0.31331446       0.62350300
C       -8.48208829       0.99513337       0.09892151
H        0.33184487       0.60042951       2.64713625
H       -1.11389148       2.01321451       4.07395175
H       -3.13198326       3.07730004       3.13999388
H       -2.26043837       1.32204711      -0.70952596
H       -3.48858071       4.86224042       1.04028524
H       -5.41560972       1.91467882       1.94615237
H       -5.19924966       1.02759309       0.44544564
H       -7.82890767       3.01451057       2.77303315
H       -9.77350802       1.80595299       3.66581427
H      -10.90674339       0.07280682       2.31311944
H       -8.13187053       0.75299507      -0.90233646
C      -10.23278288      -0.70132307      -0.16397088
C      -10.77812051      -1.55108201      -0.82348026
Br     -11.65988535      -2.92507033      -1.88985114
C        0.88212379      -0.88212379       0.88212379
C        0.74560474      -2.26671192       0.82972137
C        1.54319650      -3.06774968       1.64437664
C        2.47174060      -2.48273746       2.50818208
C        2.62583470      -1.08648904       2.56193190
C        1.81207836      -0.29031195       1.73893327
C        3.60082505      -0.42725324       3.51931850
H        3.84290062       0.57552585       3.14109027
N        4.84286409      -1.19112238       3.59300323
C        5.72301768      -0.88268557       4.57169511
N        7.01340913      -1.09265002       4.66386378
N        7.41276604      -0.49137330       5.84109009
N        6.38837377       0.08736381       6.45769519
N        5.32449004      -0.21335295       5.69837800
C        3.98728408       0.32078167       5.90693393
H        4.08455879       1.39104556       5.67716023
C        2.98393223      -0.31254709       4.92315865
C        3.49186541       0.15304585       7.33535794
C        3.62595962      -1.06243353       8.02921996
C        3.12390261      -1.20398370       9.32467953
C        2.46999447      -0.13963783       9.94229619
C        2.32286593       1.06530293       9.26088793
C        2.82579442       1.21705707       7.96740583
H        0.02259839      -2.72960010       0.16352241
H        1.44019049      -4.14986763       1.61099962
H        3.07815197      -3.12746963       3.14365559
H        1.89850526       0.79373237       1.76818663
H        5.24712046      -1.44942252       2.69456339
H        2.68924254      -1.31184289       5.27535548
H        2.06258748       0.28432200       4.89402291
H        4.13115806      -1.91272436       7.57256896
H        3.24541406      -2.14700495       9.85285628
H        2.08231235      -0.26005032      10.95030698
H        2.69682096       2.16684092       7.45254910
C        1.63841089       2.16351506       9.89259310
C        1.06517979       3.08326772      10.42164618
Br       0.13831360       4.57042998      11.27708026
