141
Properties=species:S:1:pos:R:3 pbc="F F F"
C        0.00000000       0.00000000       0.00000000
C        0.88212379       0.88212379      -0.88212379
C        2.26706218       0.82285411      -0.75212174
C        3.06817723       1.63749348      -1.54965212
C        2.48290246       2.50813170      -2.47162598
C        1.08623081       2.56888107      -2.61914377
C        0.29001146       1.74580328      -1.80550884
C        0.42694863       3.53364412      -3.58680403
H       -0.57861742       3.16104726      -3.82603521
N        1.18553027       3.60951099      -4.83194844
C        0.87756456       4.59356557      -5.70626823
N        1.08211840       4.69063528      -6.99716925
N        0.48438900       5.87236204      -7.38847839
N       -0.08691698       6.48692209      -6.35870004
N        0.21515275       5.72143953      -5.29962871
C       -0.31198986       5.92633915      -3.95908705
H       -1.38371268       5.70184184      -4.05254430
C        0.32139417       4.93517629      -2.96306751
C       -0.13554496       7.35173064      -3.45799182
C        1.08245027       8.04070035      -3.59446248
C        1.23213716       9.33321821      -3.08721046
C        0.17356476       9.95266136      -2.42570237
C       -1.03377677       9.27603849      -2.27618920
Br      -2.46779952      10.10783566      -1.36728958
C       -1.19366239       7.98554807      -2.78425750
H        2.73018365       0.15130144      -0.03423581
H        4.15058662       1.59876597      -1.45170515
H        3.12776561       3.14343165      -3.07807992
H       -0.79426814       1.78034075      -1.88688691
H        1.43792700       2.71175659      -5.24142279
H        1.32359646       5.28151947      -2.67132499
H       -0.27143631       4.90455777      -2.03916693
H        1.92837304       7.58251146      -4.10556689
H        2.17698541       9.85767874      -3.21061113
H        0.30029490      10.95835030      -2.03402446
H       -2.14517903       7.47440397      -2.65330419
C       -0.88212379      -0.88212379      -0.88212379
C       -2.13911896      -1.27368597      -0.42923310
C       -2.93608227      -2.08814101      -1.23109953
C       -2.47377593      -2.50883052      -2.48005368
C       -1.21085070      -2.11112717      -2.95227777
C       -0.41549061      -1.29398947      -2.13184351
C       -0.67237115      -2.58633207      -4.28869357
H        0.10226847      -1.88418498      -4.62654855
N       -1.73253393      -2.60207221      -5.29238356
C       -1.48694533      -3.22210992      -6.46834311
N       -2.04295085      -3.08030800      -7.64666408
N       -1.33868246      -3.90592644      -8.50062054
N       -0.35993986      -4.53707523      -7.86169006
N       -0.49479285      -4.15966779      -6.58176036
C        0.44352796      -4.49530594      -5.52165837
H        1.35696942      -3.94352462      -5.78411826
C       -0.06842652      -3.99429743      -4.15691402
C        0.75479886      -5.98239824      -5.44657812
C       -0.25780614      -6.95614810      -5.50365887
C        0.04991243      -8.31352264      -5.38895562
C        1.37018433      -8.71884012      -5.20327270
C        2.37965376      -7.76269565      -5.13540904
Br       4.17036964      -8.30786581      -4.86982953
C        2.08159567      -6.40394316      -5.25379569
H       -2.50450035      -0.95424028       0.54301974
H       -3.91787203      -2.40037290      -0.88281281
H       -3.10924912      -3.15356294      -3.08646513
H        0.57206718      -0.98107827      -2.46394842
H       -2.29352177      -1.75356600      -5.34401860
H       -0.83010747      -4.68304710      -3.76328634
H        0.75179862      -3.99737775      -3.42670926
H       -1.29921899      -6.67033153      -5.64690086
H       -0.74315715      -9.05565345      -5.44646468
H        1.59920700      -9.77739878      -5.11447787
H        2.88614021      -5.67385386      -5.19481548
C       -0.88212379       0.88212379       0.88212379
C       -0.59365674       1.01021667       2.23816462
C       -1.40729031       1.80581627       3.04221624
C       -2.50544140       2.46814973       2.48906901
C       -2.80021460       2.35479031       1.11925074
C       -1.97478255       1.54566095       0.32088008
C       -4.00912118       3.03431355       0.50396206
H       -3.83999886       3.14453721      -0.57607102
N       -4.18996659       4.36856415       1.06845896
C       -5.34837868       5.01671958       0.81230009
N       -5.64107475       6.29402613       0.83482206
N       -6.94954819       6.39133522       0.40434603
N       -7.45034766       5.19620245       0.11215504
N       -6.47264324       4.33451498       0.42906277
C       -6.51324377       2.90640839       0.15378419
H       -6.47223798       2.84089470      -0.94245921
C       -5.27751458       2.19866845       0.74345495
C       -7.78429286       2.23648868       0.65339596
C       -8.29590425       2.48190729       1.93980156
C       -9.44063672       1.82118606       2.39074307
C      -10.08460282       0.89708974       1.57023593
C       -9.58108894       0.63902288       0.29833910
Br     -10.44404268      -0.62414713      -0.81256984
C       -8.44000319       1.29842497      -0.16228498
H        0.25633118       0.49485601       2.67719608
H       -1.18987270       1.90834598       4.10283906
H       -3.13419031       3.07708902       3.13799786
H       -2.18546647       1.42731245      -0.73981940
H       -3.35153718       4.94628027       1.09328892
H       -5.41229206       2.04071176       1.82343709
H       -5.17279386       1.19948506       0.30000947
H       -7.81400432       3.19780624       2.60464082
H       -9.83089697       2.03012269       3.38425562
H      -10.97429626       0.38773745       1.93063595
H       -8.06235581       1.07896187      -1.15878855
C        0.88212379      -0.88212379       0.88212379
C        0.54214394      -2.21729895       1.08259515
C        1.34210272      -3.01581148       1.89740863
C        2.47627543      -2.47725510       2.50912960
C        2.83529198      -1.13345912       2.30550455
C        2.01747230      -0.33817191       1.48567937
C        4.04106987      -0.51690314       2.98942379
H        4.35722858       0.36656295       2.41779943
N        5.15568115      -1.45962943       3.01167912
C        6.22235014      -1.16630928       3.78873894
N        7.46644666      -1.57420367       3.72927260
N        8.13929356      -0.88626199       4.71967389
N        7.32619555      -0.06186622       5.37064337
N        6.11818356      -0.28548602       4.83255141
C        4.92519014       0.48946974       5.13771595
H        5.13463999       1.48426407       4.72029754
C        3.69103034      -0.10083671       4.42777092
C        4.65736304       0.61319218       6.63000665
C        4.73060864      -0.49564982       7.49135465
C        4.43776645      -0.36429012       8.85050927
C        4.05567228       0.87183100       9.36808721
C        3.97029264       1.97435918       8.52251746
Br       3.43897173       3.65003032       9.21838430
C        4.26577577       1.85308945       7.16345686
H       -0.34095594      -2.64291813       0.61375870
H        1.08126231      -4.05884554       2.06094989
H        3.08207678      -3.11688885       3.15031155
H        2.26172542       0.70893010       1.32016420
H        5.36247835      -1.90783686       2.12079117
H        3.31968581      -0.97581006       4.98094504
H        2.87281315       0.63161626       4.43109150
H        5.02524152      -1.47502997       7.11617989
H        4.50993808      -1.22895832       9.50637888
H        3.82924034       0.96352656      10.42695587
H        4.18952520       2.72750982       6.52051376
