118
Properties=species:S:1:pos:R:3 pbc="F F F"
C        1.79125482       1.79125482      -1.79125482
C        2.83525175       2.51945760      -1.21989060
C        3.64635632       3.33481429      -2.01996745
C        3.41020418       3.42587387      -3.39151696
N        4.16282366       4.22059933      -4.28448950
C        5.21315522       5.06341688      -3.97884603
O        5.64609503       5.30796044      -2.85872667
C        5.83744262       5.75007577      -5.13606322
C        6.43351558       6.99100559      -4.93197251
N        7.02119531       7.71837766      -5.91578637
C        7.02853144       7.17075149      -7.15362399
C        6.48001094       5.93094239      -7.44565643
Br       6.54735519       5.23608413      -9.19716232
C        5.87818219       5.20306341      -6.42226828
C        2.35798612       2.67861753      -3.94039319
F        2.12390611       2.74864853      -5.26141113
C        1.54738281       1.86371812      -3.15777059
H        3.03038518       2.46418662      -0.15101025
H        4.44990675       3.88456279      -1.53911793
H        3.82916069       4.18830987      -5.24168044
H        6.45088762       7.45520449      -3.94808090
H        7.50705818       7.77685349      -7.91851211
H        5.47641385       4.21660493      -6.62961254
H        0.74372790       1.30318891      -3.62291046
C       -1.79125482      -1.79125482      -1.79125482
C       -1.79113679      -1.60894130      -3.17452187
C       -2.60036026      -2.40971907      -3.99105873
C       -3.41394702      -3.39012233      -3.42352566
N       -4.26929592      -4.24481656      -4.15380001
C       -4.49031058      -4.24818726      -5.51692028
O       -4.01374600      -3.46696096      -6.33207517
C       -5.42482906      -5.28980835      -6.00894420
C       -6.15979495      -5.03396435      -7.16273438
N       -7.05449298      -5.90337923      -7.69748713
C       -7.20581315      -7.08756654      -7.05952723
C       -6.50002254      -7.43819985      -5.91838737
Br      -6.76227537      -9.11708029      -5.10124598
C       -5.58998145      -6.52965559      -5.38387683
C       -3.39003642      -3.55583794      -2.03112248
F       -4.16119950      -4.50228934      -1.47047693
C       -2.58952235      -2.76945596      -1.20989321
H       -1.16655499      -0.84549741      -3.63352965
H       -2.57149987      -2.23903655      -5.06305105
H       -4.81013391      -4.87615717      -3.57285992
H       -6.05611894      -4.09517679      -7.70287727
H       -7.92805475      -7.76164336      -7.51272567
H       -5.00567744      -6.80501500      -4.51193888
H       -2.60194784      -2.93051375      -0.13736568
C       -1.79125482       1.79125482       1.79125482
C       -1.70445587       1.69004497       3.18009911
C       -2.51278559       2.49127553       3.99707695
C       -3.41203357       3.39075635       3.42480510
N       -4.27422258       4.23817284       4.15551707
C       -4.41976175       4.30871759       5.52693879
O       -3.85442919       3.60365291       6.35470004
C       -5.38484811       5.32423978       6.01449371
C       -6.03911247       5.09595467       7.22142655
N       -6.95213336       5.94450046       7.75872551
C       -7.20697541       7.07943181       7.06649970
C       -6.58661408       7.40133372       5.86866196
Br      -6.99067943       9.01284008       4.97708213
C       -5.65600858       6.51464206       5.33286323
C       -3.47441739       3.47621124       2.02636821
F       -4.32902302       4.34458311       1.46035964
C       -2.67586507       2.68857817       1.20442830
H       -1.01220197       0.99011629       3.64326379
H       -2.41513147       2.38512250       5.07333350
H       -4.88201806       4.80393080       3.57320214
H       -5.85142411       4.19732163       7.80542727
H       -7.94120910       7.73800389       7.52321079
H       -5.13755830       6.77049952       4.41457350
H       -2.75660630       2.78601001       0.12721096
C        1.79125482      -1.79125482       1.79125482
C        2.61858897      -2.75015591       1.20585507
C        3.42732786      -3.56694130       2.00686890
C        3.40502432      -3.42810175       3.39446895
N        4.17443952      -4.20244793       4.29102504
C        5.03493359      -5.23760569       3.98287884
O        5.24362606      -5.70132062       2.86783546
C        5.73648606      -5.84910823       5.13798732
C        6.11437482      -7.18602849       5.05609037
N        6.74657406      -7.85540600       6.05337929
C        7.02901637      -7.15019897       7.17369157
C        6.71161380      -5.80987098       7.33512498
Br       7.15585500      -4.89939529       8.92535135
C        6.05928021      -5.14319293       6.30104073
C        2.56866830      -2.45236818       3.95596036
F        2.54315462      -2.30030515       5.29050601
C        1.76316914      -1.63369556       3.17200683
H        2.64464074      -2.87548068       0.12546063
H        4.05898097      -4.30018359       1.51442291
H        4.00713236      -3.98468616       5.26733248
H        5.90854884      -7.77855986       4.16706430
H        7.53604655      -7.71377044       7.95260679
H        5.83657930      -4.08580373       6.40024830
H        1.13037350      -0.89207522       3.64737855
C       -0.00445707       0.01189536      -1.78238275
H       -0.66409135       0.67374010      -2.43557963
H        0.65740317      -0.63156657      -2.45157240
C       -0.90989263      -0.90692880      -0.91072765
C        0.90977584       0.90977584      -0.90977584
C       -0.00465871       1.77757030       0.00794375
H       -0.66225468       2.44313916      -0.64384735
H        0.64322798       2.43503045       0.67728295
C       -1.78241447       0.00034974      -0.00472694
H       -2.45427497      -0.65498947       0.64260836
H       -2.43311707       0.67328779      -0.65473579
C       -0.91132561       0.90220522       0.91563759
C       -0.01476271      -0.02253852       1.78660255
H       -0.67934791      -0.69751639       2.42135241
H        0.63392994       0.61504881       2.47327442
C        0.01484550      -1.77751727      -0.01636693
H        0.67870853      -2.42144646      -0.68295456
H       -0.62264859      -2.45592969       0.64226336
C        1.78714474       0.01002794       0.00389507
H        2.44202412       0.67113390       0.66197326
H        2.45385902      -0.65136977      -0.64189061
C        0.91606151      -0.90478549       0.90901405
