97
Properties=species:S:1:pos:R:3 pbc="F F F"
C        0.00000000       0.00000000       0.00000000
C        0.88135080       0.88135080      -0.88135080
C        1.92534773       1.60955358      -0.30998658
C        2.73645230       2.42491027      -1.11006342
C        2.50030016       2.51596985      -2.48161294
N        3.25291963       3.31069531      -3.37458548
C        4.30325119       4.15351286      -3.06894200
O        4.73619100       4.39805642      -1.94882264
C        4.92753859       4.84017175      -4.22615919
C        5.52361156       6.08110157      -4.02206849
N        6.11129129       6.80847364      -5.00588234
C        6.11862742       6.26084746      -6.24371996
C        5.57010691       5.02103837      -6.53575240
Br       5.63745117       4.32618011      -8.28725829
C        4.96827816       4.29315938      -5.51236425
C        1.44808210       1.76871351      -3.03048917
F        1.21400209       1.83874451      -4.35150711
C        0.63747879       0.95381410      -2.24786657
H        2.12048115       1.55428260       0.75889378
H        3.54000272       2.97465877      -0.62921390
H        2.91925667       3.27840584      -4.33177642
H        5.54098360       6.54530047      -3.03817687
H        6.59715416       6.86694947      -7.00860809
H        4.56650983       3.30670090      -5.71970852
H       -0.16617613       0.39328489      -2.71300643
C       -0.88135080      -0.88135080      -0.88135080
C       -0.38948473      -1.35884223      -2.09656092
C       -1.19269781      -2.16430825      -2.91441993
C       -2.49035324      -2.48840579      -2.51912392
N       -3.38235497      -3.28619283      -3.26965261
C       -3.16674537      -3.84507279      -4.51388789
O       -2.16969064      -3.70151049      -5.21186893
C       -4.28081181      -4.66781515      -5.04524257
C       -4.44040637      -4.76179976      -6.42457549
N       -5.42991968      -5.47119758      -7.02453000
C       -6.28522710      -6.12994743      -6.20802031
C       -6.18959839      -6.11269570      -4.82460359
Br      -7.41647583      -7.07234520      -3.76206854
C       -5.16929519      -5.37508779      -4.22941882
C       -2.95717804      -1.99991299      -1.29019374
F       -4.20170327      -2.31117716      -0.89137328
C       -2.16922571      -1.20182182      -0.46811192
H        0.61852293      -1.11159853      -2.42279438
H       -0.77396220      -2.51816965      -3.85174355
H       -4.29585751      -3.39168243      -2.84189899
H       -3.76585932      -4.25042636      -7.10817525
H       -7.06499840      -6.68911274      -6.71860057
H       -5.06182453      -5.38145333      -3.14964139
H       -2.56993336      -0.84449088       0.47430905
C       -0.88135080       0.88135080       0.88135080
C       -1.43493705       0.35917922       2.05077162
C       -2.24903079       1.15895622       2.86343897
C       -2.51373609       2.48026519       2.50388166
N       -3.32347115       3.36750852       3.24722075
C       -4.01907441       3.09744751       4.40918413
O       -4.09446181       2.01319390       4.97541435
C       -4.76380415       4.24258324       4.98748214
C       -5.90937602       3.98337281       5.73403278
N       -6.67888071       4.94894797       6.29781858
C       -6.27306717       6.22822826       6.12189942
C       -5.13358287       6.57953972       5.41377509
Br      -4.63284976       8.38802893       5.23001089
C       -4.36061699       5.57331818       4.83986662
C       -1.93964303       2.98118114       1.32646059
F       -2.17777518       4.25483192       0.97164660
C       -1.12787628       2.19867525       0.51260792
H       -1.24306577      -0.67088105       2.34368525
H       -2.65996881       0.71748929       3.76641730
H       -3.43017763       4.28052641       2.81873488
H       -6.25823396       2.96623015       5.89999682
H       -6.90933230       6.97729379       6.58608562
H       -3.44778579       5.83192669       4.31320678
H       -0.70455501       2.62566420      -0.39010402
C        0.88135080      -0.88135080       0.88135080
C        1.00190695      -2.24265745       0.60032348
C        1.80457700      -3.06038692       1.40646207
C        2.48319331      -2.51741588       2.49727375
N        3.31117091      -3.25267128       3.37435823
C        3.56720276      -4.60941910       3.34908419
O        3.07401224      -5.42759959       2.58145824
C        4.51004712      -5.09992786       4.38389456
C        4.38230326      -6.41071469       4.83376366
N        5.17574224      -6.96389464       5.78601039
C        6.15098610      -6.17599642       6.29621233
C        6.36743309      -4.86702699       5.89243760
Br       7.76040917      -3.84411565       6.64636475
C        5.53912252      -4.31764307       4.91703621
C        2.34893428      -1.14509400       2.75325649
F        3.00381228      -0.60561011       3.79483132
C        1.55757333      -0.32219904       1.95938709
H        0.47554760      -2.68379063      -0.24346826
H        1.87478521      -4.11435064       1.15473954
H        3.69914355      -2.69954975       4.13074563
H        3.61366369      -7.07186819       4.43892905
H        6.76941305      -6.64808714       7.05521152
H        5.71953431      -3.30654150       4.56684344
H        1.48087490       0.73410965       2.19334994
