133
Properties=species:S:1:pos:R:3 pbc="F F F"
C        0.00000000       0.00000000       0.00000000
C        0.88210084       0.88210084      -0.88210084
C        1.52853940       0.32878210      -1.98359377
C        2.33674773       1.13348931      -2.78357168
C        2.49284839       2.48820791      -2.48154764
C        1.83622548       3.06430436      -1.37759927
C        1.03214022       2.23530310      -0.57434244
C        2.03840692       4.54469543      -1.07952007
H        2.24844636       5.09340865      -2.00434806
S        3.49621913       4.77000946      -0.03242081
C        2.50371990       5.06046096       1.42726747
C        1.11006986       5.42481119       0.96176304
O        0.29351817       5.85564217       1.77084472
N        0.91244459       5.18452677      -0.40806238
C       -0.30035297       5.48417239      -1.12926791
C       -1.41851184       6.05421255      -0.50882705
C       -2.59347762       6.33327988      -1.21970139
C       -2.68005964       6.05478738      -2.58033198
Br      -4.30910147       6.45912382      -3.46484937
C       -1.58743143       5.49505615      -3.24686116
C       -1.62205074       5.17464032      -4.71612804
C       -0.41596670       5.21629512      -2.50901547
H        1.41312560      -0.72478908      -2.22339866
H        2.85021627       0.70407796      -3.64069896
H        3.13932145       3.09437538      -3.11481632
H        0.51187352       2.63944858       0.29115386
H        2.45387612       4.15687164       2.04064649
H        2.92603138       5.88437174       2.00796310
H       -1.43382510       6.30294371       0.54673295
H       -3.43629139       6.77001181      -0.68830935
H       -0.66374504       4.77410928      -5.06388732
H       -1.82417161       6.07770554      -5.30086241
H       -2.38661192       4.41976301      -4.92452353
H        0.40614007       4.77462868      -3.06378995
C       -0.88210084      -0.88210084      -0.88210084
C       -0.85119089      -0.72498468      -2.26473970
C       -1.66023692      -1.52651916      -3.06705264
C       -2.49407410      -2.48382519      -2.48470466
C       -2.52745237      -2.66199633      -1.08868041
C       -1.71183886      -1.83731839      -0.29262850
C       -3.45582335      -3.71327975      -0.49351931
H       -3.60878622      -4.53205142      -1.20536543
S       -5.09298207      -2.99943161      -0.20623571
C       -4.81908211      -2.87500215       1.55717087
C       -3.67421736      -3.80278475       1.90388409
O       -3.42039921      -4.03934137       3.08142495
N       -2.99575665      -4.27915009       0.76987301
C       -1.89849469      -5.21503705       0.80044441
C       -1.39836564      -5.74298278       1.99682066
C       -0.32666279      -6.64573422       2.01289337
C        0.27294727      -7.05308634       0.82507935
Br       1.72116749      -8.27359579       0.93755658
C       -0.19679541      -6.56220633      -0.39548415
C        0.41005923      -6.96817925      -1.71059761
C       -1.27363205      -5.64852831      -0.38718354
H       -0.20630111       0.01905151      -2.72448558
H       -1.64549435      -1.40215569      -4.14734315
H       -3.12618083      -3.09039920      -3.13193313
H       -1.71188187      -1.93863092       0.79034455
H       -4.54850708      -1.85147334       1.82987915
H       -5.71859810      -3.18101981       2.09717788
H       -1.80892373      -5.47875183       2.96528989
H        0.02834558      -7.02075343       2.97037809
H       -0.11260394      -6.50645323      -2.55519440
H        0.34332642      -8.05248169      -1.84524106
H        1.45670899      -6.65241436      -1.76196925
H       -1.60209514      -5.28604319      -1.35642037
C       -0.88210084       0.88210084       0.88210084
C       -1.88704256       1.65126406       0.30260865
C       -2.68679336       2.45908204       1.10793332
C       -2.48124887       2.49230031       2.48905477
C       -1.47638869       1.71116525       3.09057517
C       -0.67117602       0.90895352       2.26165622
C       -1.28126253       1.78138717       4.59997271
H       -2.22852466       2.02281532       5.09486308
S       -0.15197040       3.13251402       5.01416498
C        1.20458264       2.01030086       5.33119517
C        0.61204292       0.63462245       5.55053849
O        1.32348824      -0.27189204       5.97369591
N       -0.74548082       0.56283652       5.19671639
C       -1.57406484      -0.60830318       5.34732567
C       -1.08297669      -1.81003384       5.87158492
C       -1.89693093      -2.94287328       6.00544599
C       -3.23425981      -2.90219728       5.62299720
Br      -4.26363532      -4.48201261       5.83324900
C       -3.77383333      -1.72299060       5.10364316
C       -5.21212253      -1.61909874       4.67569383
C       -2.93334006      -0.59576648       4.97177032
H       -2.05135215       1.63176749      -0.77138446
H       -3.46812162       3.06790538       0.65896619
H       -3.11143682       3.14066517       3.09641117
H        0.11995845       0.29454958       2.68557711
H        1.88159436       1.97830176       4.47339387
H        1.74809594       2.32491747       6.22561849
H       -0.05404039      -1.92597297       6.19431825
H       -1.46395615      -3.85418296       6.41225657
H       -5.45696559      -0.60996499       4.32725098
H       -5.87890248      -1.83982884       5.51532270
H       -5.41571392      -2.30817334       3.85013404
H       -3.39068031       0.29714378       4.55673461
C        0.88210084      -0.88210084       0.88210084
C        0.29598575      -1.70802713       1.83690238
C        1.10227523      -2.50757603       2.64395746
C        2.49037390      -2.48099441       2.49123563
C        3.09661616      -1.65938954       1.52212341
C        2.26844738      -0.85074827       0.72259011
C        4.61466042      -1.65550273       1.39245927
H        5.02459982      -2.62502310       1.69658015
S        5.32808624      -0.44197821       2.52858495
C        5.65019911       0.72379731       1.21051158
C        5.61917529      -0.04635458      -0.09241186
O        5.99973707       0.49508395      -1.12633749
N        5.10539863      -1.34549684       0.05413827
C        5.00616823      -2.31566676      -1.00874766
C        5.42257461      -2.03831441      -2.31636125
C        5.31351344      -2.98749704      -3.34150684
C        4.78849442      -4.25010463      -3.08353933
Br       4.67176765      -5.47273597      -4.52963191
C        4.36841759      -4.57843267      -1.79236438
C        3.79521105      -5.92728559      -1.45377901
C        4.48175584      -3.60401768      -0.77642962
H       -0.78312297      -1.73237512       1.96248302
H        0.64954105      -3.14868574       3.39676640
H        3.10044133      -3.10612375       3.14194808
H        2.69691630      -0.19736435      -0.03411241
H        4.87904681       1.49844198       1.18949644
H        6.63442602       1.17886340       1.34687741
H        5.84355813      -1.08029892      -2.60147139
H        5.64535498      -2.71872709      -4.34205231
H        3.55519391      -6.00713133      -0.38807367
H        4.51676670      -6.71852977      -1.68090014
H        2.86915076      -6.09957411      -2.01105025
H        4.13662083      -3.89782753       0.21011034
