121
Properties=species:S:1:pos:R:3 pbc="F F F"
C        0.00000000       0.00000000       0.00000000
C        0.88031534       0.88031534      -0.88031534
C        1.69244716       0.30621559      -1.84734009
C        2.49992268       1.11983741      -2.65504926
C        2.51519435       2.52232070      -2.52075016
C        1.68514816       3.06534623      -1.52751491
C        0.87375333       2.25793524      -0.71609215
N        3.35210536       3.34432391      -3.36093592
C        3.41403644       4.74537259      -3.29977568
O        2.72330898       5.49419580      -2.61449215
C        4.44902491       5.33167614      -4.23400246
S        5.42632124       3.97893808      -4.87585295
C        4.20034328       2.73630887      -4.38696664
H        4.76030155       1.93294389      -3.90041488
C        3.44636410       2.23602719      -5.61603553
C        2.25247871       2.86508197      -6.03252335
C        1.55047296       2.42616274      -7.15784375
C        2.02830343       1.35463581      -7.90167607
C        3.20966231       0.72250815      -7.52233762
C        3.91624176       1.15813998      -6.39341688
Br       5.51456051       0.21140961      -5.98325615
H        1.71034583      -0.77143813      -1.98734594
H        3.10762717       0.60017990      -3.38867491
H        1.63113160       4.13174336      -1.33659498
H        0.24571572       2.72536556       0.03813910
H        3.94368194       5.85590059      -5.04823075
H        5.08951276       6.02485622      -3.68329628
H        1.84065983       3.70677039      -5.47813269
H        0.62937110       2.92389066      -7.45077964
H        1.48354999       1.01194743      -8.77797999
H        3.57526451      -0.11185982      -8.11705278
C       -0.88031534      -0.88031534      -0.88031534
C       -1.59260836      -1.93153140      -0.32186308
C       -2.40142091      -2.73811308      -1.13527535
C       -2.52187989      -2.51511243      -2.52127289
C       -1.78123458      -1.44648788      -3.05028685
C       -0.97053207      -0.63448130      -2.24276734
N       -3.35928067      -3.35488517      -3.34319934
C       -3.54344346      -3.19065030      -4.72509094
O       -3.11798264      -2.28167471      -5.43233958
C       -4.39949163      -4.27577252      -5.33943937
S       -4.63004227      -5.54733308      -4.10373692
C       -4.11728594      -4.45700662      -2.74932625
H       -3.41414449      -5.03559206      -2.14392376
C       -5.33604268      -4.02252161      -1.93986254
C       -6.03616528      -2.84184463      -2.27207412
C       -7.15727676      -2.42978046      -1.54742224
C       -7.61377264      -3.19160365      -0.47923902
C       -6.95110065      -4.36728567      -0.13612176
C       -5.82520051      -4.78364452      -0.85895360
Br      -5.01226329      -6.40682957      -0.29013341
H       -1.53130590      -2.13832539       0.74337764
H       -2.92788561      -3.54024601      -0.62835035
H       -1.79653161      -1.19711770      -4.10582062
H       -0.41770955       0.18317676      -2.69840939
H       -5.36230587      -3.85194423      -5.63356317
H       -3.89201740      -4.69311116      -6.21253671
H       -5.71218817      -2.21337942      -3.09999532
H       -7.67208481      -1.51185305      -1.82010354
H       -8.48634658      -2.87271441       0.08558357
H       -7.32262135      -4.95700992       0.69917380
C       -0.88031534       0.88031534       0.88031534
C       -1.84319157       1.69704531       0.30576595
C       -2.65091912       2.50450319       1.11938703
C       -2.52077143       2.51518972       2.52230406
C       -1.53164540       1.68055981       3.06580410
C       -0.72023456       0.86915301       2.25839315
N       -3.36091256       3.35215499       3.34429764
C       -3.30375961       3.40972359       4.74570152
O       -2.62278268       2.71471861       5.49449565
C       -4.23664497       4.44574892       5.33230962
S       -4.87152778       5.42899159       3.98059290
C       -4.38258508       4.20526843       2.73576529
H       -3.89196405       4.76616233       1.93553394
C       -5.61239525       3.45646514       2.22956643
C       -6.03432232       2.26196009       2.85380162
C       -7.16041348       1.56463636       2.40942961
C       -7.89960827       2.04788395       1.33712309
C       -7.51485842       3.22998290       0.70966676
C       -6.38514346       3.93187933       1.15077583
Br      -5.96738674       5.53178059       0.21005893
H       -1.97991882       1.71857703      -0.77224220
H       -3.38117097       3.11594702       0.59936398
H       -1.34407859       1.62279177       4.13259957
H        0.03071830       0.23747038       2.72619009
H       -5.05394160       3.94128273       5.85258895
H       -3.68610706       5.08251596       6.02904225
H       -5.48368300       1.84597580       3.69590412
H       -7.45758319       0.64293449       2.90352371
H       -8.77650402       1.50677912       0.99019427
H       -8.10598162       3.59984972      -0.12537388
C        0.88031534      -0.88031534       0.88031534
C        1.60243904      -0.31984342       1.92372037
C        2.41026259      -1.13345888       2.73108787
C        2.51530475      -2.52262371       2.52033674
C        1.77495390      -3.05157718       1.45147823
C        0.96379460      -2.24415152       0.63983460
N        3.35115856      -3.34486798       3.36133865
C        3.49856676      -4.73431060       3.22630734
O        2.89208599      -5.47874874       2.46116220
C        4.51279146      -5.31616257       4.18574948
S        5.37184398      -3.95133803       4.95793027
C        4.10400569      -2.75205460       4.46755851
H        4.64193642      -1.89168098       4.06004292
C        3.25493826      -2.36741346       5.67607512
C        2.07880060      -3.08509191       5.98619153
C        1.29089506      -2.75263657       7.09094783
C        1.66297401      -1.70179633       7.91984497
C        2.82438515      -0.98393169       7.64619124
C        3.61685606      -1.31264524       6.53829732
Br       5.17709642      -0.25626939       6.27586045
H        1.54922041       0.74705807       2.12409131
H        2.94476997      -0.62488155       3.52683045
H        1.79433548      -4.10627181       1.19886265
H        0.40709599      -2.70058988      -0.17474370
H        3.99472848      -5.91452407       4.93856073
H        5.22244294      -5.93920845       3.63601389
H        1.74851119      -3.91430993       5.36274179
H        0.38578896      -3.31703106       7.30122138
H        1.05127028      -1.44191003       8.78029710
H        3.10680229      -0.16694195       8.30671323
