150
Properties=species:S:1:pos:R:3 pbc="F F F"
C        1.79129637       1.79129637      -1.79129637
C        3.09891286       2.07518353      -1.39866176
C        3.91104542       2.87847931      -2.20582787
C        3.41239682       3.39236565      -3.40831757
C        2.09153616       3.11283249      -3.78721592
C        1.28247854       2.30856212      -2.98052293
C        4.25226933       4.24123185      -4.30948855
N        3.64991022       5.18911864      -4.97362587
N        4.40079585       5.90690824      -5.87378590
C        5.62675342       5.59784333      -6.40893150
S        6.46239099       4.16274343      -5.96089461
C        5.75264408       3.96783721      -4.31706954
N        5.99187544       6.48054565      -7.30074834
N        4.98711132       7.41537553      -7.37053372
C        4.02653975       7.07879005      -6.52131867
C        2.77404619       7.81463179      -6.30160120
C        1.55741627       7.10891606      -6.23066420
C        0.34025159       7.77180830      -6.04855495
C        0.31188704       9.15782645      -5.94766674
C        1.50128849       9.87954958      -6.02035688
C        2.72553711       9.21702605      -6.19157479
Br       4.27835690      10.31932907      -6.20777234
H        3.49257841       1.67907947      -0.46526648
H        4.91908154       3.10046984      -1.86541238
H        1.68620097       3.51012457      -4.71533541
H        0.26233042       2.09306939      -3.28902550
H        5.96716651       2.94878051      -3.98497434
H        6.23211264       4.66844647      -3.62619732
H        1.54140461       6.02497800      -6.32692030
H       -0.58506802       7.20276793      -5.99297472
H       -0.63330879       9.67750656      -5.81328716
H        1.46716614      10.96340197      -5.93961046
C       -1.79129637      -1.79129637      -1.79129637
C       -2.87469387      -2.46717361      -1.23089067
C       -3.68733356      -3.27192301      -2.03609603
C       -3.41535219      -3.39423383      -3.40349402
C       -2.31508882      -2.72187946      -3.95461629
C       -1.50567448      -1.91688639      -3.14900273
C       -4.26885680      -4.23044127      -4.30369166
N       -3.67695160      -4.84476065      -5.29094249
N       -4.47196581      -5.53462666      -6.17489753
C       -5.82925799      -5.44389934      -6.36037091
S       -6.79332937      -4.38381326      -5.40888639
C       -5.74628092      -4.34739310      -3.94387682
N       -6.22399387      -6.19459179      -7.35458376
N       -5.10401011      -6.81345450      -7.85555597
C       -4.04742353      -6.42179732      -7.15742760
C       -2.65951406      -6.84740214      -7.38336298
C       -1.62953304      -5.88699293      -7.38047056
C       -0.29904783      -6.24491078      -7.61665623
C        0.02869070      -7.57068426      -7.87538666
C       -0.97275843      -8.53905807      -7.88937846
C       -2.30714062      -8.18543625      -7.64156107
Br      -3.56296765      -9.61694787      -7.62554279
H       -3.09151396      -2.37653243      -0.16887797
H       -4.51240312      -3.80343159      -1.56912905
H       -2.08565181      -2.81175908      -5.01425005
H       -0.65981297      -1.39482900      -3.58978333
H       -6.06849374      -3.50210109      -3.33032653
H       -5.88739309      -5.26895259      -3.37041076
H       -1.85402949      -4.83711167      -7.20216175
H        0.47830337      -5.48418958      -7.60478843
H        1.06109114      -7.85187683      -8.06669924
H       -0.70469288      -9.57316407      -8.09232162
C       -1.79129637       1.79129637       1.79129637
C       -1.42197476       2.03752306       3.11326033
C       -2.22447292       2.84835958       3.92252010
C       -3.39413646       3.41527420       3.40366938
C       -3.76422436       3.14997370       2.07738651
C       -2.96022362       2.34135420       1.26998578
C       -4.27185428       4.30202729       4.22910816
N       -5.55670508       4.24719629       4.00875337
N       -6.35519990       5.12921869       4.69707140
C       -5.99328166       6.26929563       5.37095096
S       -4.34949566       6.76584207       5.47069130
C       -3.59113071       5.14053897       5.30588115
N       -7.04025947       6.90134660       5.83156335
N       -8.14241176       6.16846231       5.46214651
C       -7.74282930       5.10552784       4.77829133
C       -8.61591035       4.07603250       4.19833634
C       -8.38433183       3.62982152       2.88284317
C       -9.20616486       2.67091751       2.28353247
C      -10.28739551       2.14730801       2.98267671
C      -10.54121821       2.57642458       4.28355216
C       -9.71206789       3.52992368       4.89214638
Br     -10.13386838       3.97700443       6.69458549
H       -0.51427679       1.59990684       3.52274072
H       -1.92349808       3.00663659       4.95482909
H       -4.67385589       3.57713172       1.66067333
H       -3.25429017       2.14918182       0.24095332
H       -2.53385474       5.29295943       5.07410719
H       -3.66627674       4.60370106       6.25677863
H       -7.55919341       4.03432978       2.29977972
H       -9.00305727       2.34019695       1.26742041
H      -10.93307877       1.40685293       2.51755323
H      -11.38949139       2.15951289       4.82117429
C        1.79129637      -1.79129637       1.79129637
C        1.32814465      -2.20460548       3.04000802
C        2.13086879      -3.01605372       3.84843009
C        3.39541459      -3.41604682       3.40161862
C        3.85777488      -2.98333375       2.15047594
C        3.05361695      -2.17441072       1.34353593
C        4.27890283      -4.29736663       4.22672026
N        5.56627370      -4.10141623       4.14496481
N        6.38352479      -4.97137082       4.82659438
C        6.07920178      -6.20300510       5.35132136
S        4.49268889      -6.85738068       5.23595946
C        3.59063511      -5.30108176       5.14583396
N        7.13810029      -6.77905797       5.85601117
N        8.18899248      -5.91323626       5.67079183
C        7.74791878      -4.82757804       5.05115165
C        8.56111411      -3.66768727       4.66147780
C        8.40806482      -3.11267442       3.37625728
C        9.17951669      -2.02547042       2.95562773
C       10.13203365      -1.47814585       3.80720072
C       10.30672096      -2.01267086       5.08180314
C        9.52660847      -3.09614947       5.51138000
Br       9.82300713      -3.68419189       7.29825929
H        0.34641941      -1.89720267       3.39330227
H        1.75326606      -3.30629498       4.82540272
H        4.84101606      -3.27945950       1.79118539
H        3.42060715      -1.85157407       0.37224409
H        2.58055452      -5.52634980       4.79401704
H        3.52200747      -4.85966889       6.14508007
H        7.68624676      -3.53016977       2.67688638
H        9.03872436      -1.61282209       1.95912817
H       10.73892428      -0.63735290       3.48120775
H       11.05439625      -1.57609870       5.73968361
C       -0.00445707       0.01189536      -1.78238275
H       -0.66409135       0.67374010      -2.43557963
H        0.65740317      -0.63156657      -2.45157240
C       -0.90989263      -0.90692880      -0.91072765
C        0.90977584       0.90977584      -0.90977584
C       -0.00465871       1.77757030       0.00794375
H       -0.66225468       2.44313916      -0.64384735
H        0.64322798       2.43503045       0.67728295
C       -1.78241447       0.00034974      -0.00472694
H       -2.45427497      -0.65498947       0.64260836
H       -2.43311707       0.67328779      -0.65473579
C       -0.91132561       0.90220522       0.91563759
C       -0.01476271      -0.02253852       1.78660255
H       -0.67934791      -0.69751639       2.42135241
H        0.63392994       0.61504881       2.47327442
C        0.01484550      -1.77751727      -0.01636693
H        0.67870853      -2.42144646      -0.68295456
H       -0.62264859      -2.45592969       0.64226336
C        1.78714474       0.01002794       0.00389507
H        2.44202412       0.67113390       0.66197326
H        2.45385902      -0.65136977      -0.64189061
C        0.91606151      -0.90478549       0.90901405
