129
Properties=species:S:1:pos:R:3 pbc="F F F"
C        0.00000000       0.00000000       0.00000000
C        0.88136274       0.88136274      -0.88136274
C        0.54125367       2.21438937      -1.08781732
C        1.35431711       3.01773873      -1.89322406
C        2.50830513       2.50080781      -2.50751882
C        2.83643952       1.15731135      -2.27509621
C        2.02596840       0.34918843      -1.46867321
C        3.33405176       3.39476814      -3.32823888
N        3.38709151       4.71338357      -3.18675210
N        4.26714557       5.22569759      -4.10740195
C        4.70585949       4.21713685      -4.81304185
S        5.86963350       4.25790516      -6.07776675
C        5.28145362       2.82102154      -6.99030173
C        4.91865384       1.66485978      -6.06643254
N        4.34058753       1.76915022      -4.90141027
N        4.13998510       3.03441256      -4.40361773
C        5.17244660       0.28286671      -6.58450798
C        5.10858262      -0.00721443      -7.95374940
C        5.34769868      -1.30752720      -8.40557841
C        5.64437489      -2.32153320      -7.49473084
C        5.69533321      -2.03321776      -6.13221718
Br       6.09017001      -3.40988230      -4.89843103
C        5.45822170      -0.73908348      -5.67044420
H       -0.34548984       2.64200113      -0.62744839
H        1.08112731       4.06248826      -2.03970656
H        3.73491160       0.71808472      -2.70095776
H        2.30297055      -0.68858086      -1.30251375
H        4.38971297       3.09543742      -7.56394554
H        6.07054418       2.53083941      -7.68919912
H        4.85551024       0.75400278      -8.68692663
H        5.29615943      -1.53352167      -9.46870233
H        5.82791711      -3.33067963      -7.85559269
H        5.50157308      -0.52606961      -4.60526475
C       -0.88136274      -0.88136274      -0.88136274
C       -0.77735026      -0.79989977      -2.26621033
C       -1.58472993      -1.61223781      -3.06831216
C       -2.50884683      -2.50685822      -2.50092671
C       -2.58716252      -2.57908715      -1.10259742
C       -1.78017910      -1.76841093      -0.29524001
C       -3.31794704      -3.34787844      -3.39123331
N       -2.96472451      -3.70182466      -4.62067802
N       -3.94750403      -4.49720178      -5.15553930
C       -4.89358855      -4.58410804      -4.25834160
S       -6.34892010      -5.49328128      -4.36310402
C       -7.35137135      -4.46605667      -3.27534886
C       -6.58619181      -4.03288580      -2.03086856
N       -5.32532920      -3.70052714      -1.98529168
N       -4.58502339      -3.86089775      -3.13209425
C       -7.37745215      -3.89552461      -0.76684452
C       -8.73139863      -3.53575962      -0.78795934
C       -9.44168862      -3.41299649       0.40893521
C       -8.80366995      -3.64200046       1.62809788
C       -7.45377626      -3.98781255       1.64725618
Br      -6.58861104      -4.29058693       3.30047922
C       -6.73541325      -4.11292122       0.45875204
H       -0.07320305      -0.11685638      -2.73390025
H       -1.48706830      -1.54466537      -4.15158846
H       -3.26260130      -3.27693570      -0.61441708
H       -1.85850794      -1.84453168       0.78613619
H       -7.66741052      -3.56682444      -3.81486097
H       -8.24056742      -5.04287635      -3.00713894
H       -9.25147519      -3.32608904      -1.71887542
H      -10.49265725      -3.13162248       0.39293965
H       -9.36430143      -3.54300553       2.55447679
H       -5.68298586      -4.38403359       0.48625122
C       -0.88136274       0.88136274       0.88136274
C       -0.76513303       0.81240916       2.26591816
C       -1.57259835       1.62470251       3.06797905
C       -2.50889612       2.50679181       2.50094384
C       -2.59946558       2.56661283       1.10276867
C       -1.79245424       1.75593373       0.29544206
C       -3.31758786       3.34849217       3.39097876
N       -2.95711930       3.71568811       4.61441978
N       -3.94205658       4.50731448       5.15087406
C       -4.89628150       4.57879170       4.26096499
S       -6.35827798       5.47665428       4.37037315
C       -7.36109150       4.43200769       3.29967770
C       -6.60269586       3.99478597       2.05246432
N       -5.33950852       3.67257441       1.99906509
N       -4.59104582       3.84873942       3.13823015
C       -7.40327969       3.84021916       0.79632244
C       -8.75393228       3.46937431       0.83181100
C       -9.47311470       3.33064335      -0.35800815
C       -8.84722436       3.55470321      -1.58435504
C       -7.50049072       3.91157880      -1.61773689
Br      -6.65170666       4.20764930      -3.28063721
C       -6.77332547       4.05265191      -0.43639496
H       -0.05139821       0.13921130       2.73335017
H       -1.46534878       1.56705145       4.15092192
H       -3.28478914       3.25468186       0.61448308
H       -1.88042838       1.82230958      -0.78583453
H       -7.66505647       3.53473842       3.84930104
H       -8.25730735       4.99912350       3.03415187
H       -9.26445320       3.26320714       1.76877931
H      -10.52151204       3.04066571      -0.33083766
H       -9.41470426       3.44325905      -2.50513313
H       -5.72347911       4.33228412      -0.47499500
C        0.88136274      -0.88136274       0.88136274
C        0.54282914      -2.21514994       1.08548128
C        1.35588969      -3.01848862       1.89090159
C        2.50829575      -2.50080673       2.50752929
C        2.83487630      -1.15653014       2.27744064
C        2.02440281      -0.34841287       1.47101435
C        3.33414472      -3.39475990       3.32815416
N        3.38922462      -4.71310101       3.18490156
N        4.26870810      -5.22547247       4.10606454
C        4.70502691      -4.21728759       4.81372369
S        5.86709062      -4.25819917       6.08001562
C        5.27563031      -2.82341448       6.99373210
C        4.91250481      -1.66647016       6.07097119
N        4.33621124      -1.76993899       4.90499779
N        4.13807213      -3.03478315       4.40516011
C        5.16364270      -0.28484962       6.59132896
C        5.09746258       0.00322829       7.96088329
C        5.33413042       1.30324078       8.41486026
C        5.63066010       2.31893176       7.50584419
C        5.68392273       2.03259213       6.14300204
Br       6.07855668       3.41152924       4.91169131
C        5.44926469       0.73877481       5.67909254
H       -0.34267257      -2.64335500       0.62327725
H        1.08395606      -4.06382208       2.03554400
H        3.73213848      -0.71664563       2.70516996
H        2.30018601       0.68997318       1.30669061
H        4.38347435      -3.09987599       7.56574560
H        6.06333844      -2.53310841       7.69413586
H        4.84443131      -0.75936525       8.69264309
H        5.28079177       1.52767715       9.47822547
H        5.81228806       3.32782805       7.86837017
H        5.49440021       0.52731046       4.61367848
