150
Properties=species:S:1:pos:R:3 pbc="F F F"
C        1.79126677       1.79126677      -1.79126677
C        1.45115770       3.12429339      -1.99772134
C        2.26422114       3.92764276      -2.80312808
C        3.41820915       3.41071184      -3.41742285
C        3.74634354       2.06721538      -3.18500023
C        2.93587242       1.25909246      -2.37857723
C        4.24395578       4.30467217      -4.23814291
N        4.29699554       5.62328760      -4.09665613
N        5.17704959       6.13560161      -5.01730598
C        5.61576352       5.12704087      -5.72294588
S        6.77953752       5.16780918      -6.98767077
C        6.19135764       3.73092556      -7.90020576
C        5.82855786       2.57476380      -6.97633656
N        5.25049156       2.67905424      -5.81131429
N        5.04988912       3.94431658      -5.31352175
C        6.08235063       1.19277073      -7.49441200
C        6.01848664       0.90268959      -8.86365343
C        6.25760271      -0.39762318      -9.31548244
C        6.55427892      -1.41162918      -8.40463486
C        6.60523724      -1.12331374      -7.04212120
Br       7.00007404      -2.49997827      -5.80833506
C        6.36812573       0.17082054      -6.58034823
H        0.56441418       3.55190516      -1.53735242
H        1.99103134       4.97239229      -2.94961059
H        4.64481562       1.62798874      -3.61086179
H        3.21287457       0.22132317      -2.21241777
H        5.29961700       4.00534145      -8.47384956
H        6.98044821       3.44074343      -8.59910315
H        5.76541426       1.66390680      -9.59683066
H        6.20606345      -0.62361764     -10.37860635
H        6.73782114      -2.42077560      -8.76549671
H        6.41147711       0.38383442      -5.51516877
C       -1.79126677      -1.79126677      -1.79126677
C       -1.60539931      -3.16991374      -1.79785938
C       -2.41808073      -3.97241719      -2.60449406
C       -3.41732755      -3.41072292      -3.41829337
C       -3.59301802      -2.01976988      -3.38577125
C       -2.78238759      -1.21213621      -2.57901831
C       -4.25249043      -4.30300380      -4.23127663
N       -4.49182910      -5.57733573      -3.94777443
N       -5.31957427      -6.10045297      -4.90992994
C       -5.54014900      -5.14829702      -5.77730424
S       -6.54681854      -5.21907277      -7.16912617
C       -5.67676832      -3.98947335      -8.15624729
C       -5.27540771      -2.77255277      -7.33169775
N       -4.85299978      -2.79048985      -6.09737047
N       -4.87641200      -3.99514498      -5.43617048
C       -5.28693280      -1.44946285      -8.03313771
C       -5.02961661      -1.34852257      -9.40669047
C       -5.04485927      -0.09897734     -10.03162536
C       -5.30996823       1.05177231      -9.28908869
C       -5.55357387       0.95022111      -7.92069194
Br      -5.90534957       2.51125940      -6.91434065
C       -5.54064372      -0.29172042      -7.28693036
H       -0.84016448      -3.63297620      -1.18053107
H       -2.26763172      -5.05169478      -2.59370771
H       -4.37225151      -1.53945212      -3.97196252
H       -2.93974976      -0.13674688      -2.57011887
H       -4.76833136      -4.43622991      -8.57424673
H       -6.33631409      -3.70386715      -8.98011355
H       -4.79504138      -2.22227287     -10.00883747
H       -4.84304754      -0.02007328     -11.09793133
H       -5.31862848       2.01996371      -9.78387748
H       -5.73294409      -0.35851087      -6.21902535
C       -1.79126677       1.79126677       1.79126677
C       -3.15047670       1.51765746       1.90503827
C       -3.95208548       2.32630019       2.71660631
C       -3.41118369       3.41940757       3.41575258
C       -2.03639512       3.66806696       3.29409707
C       -1.22947149       2.86064178       2.48342883
C       -4.29653496       4.22328909       4.26694680
N       -5.41954392       3.77953207       4.81786327
N       -5.98305190       4.78960736       5.55729793
C       -5.21393808       5.83646304       5.41534914
S       -5.40288590       7.37657993       6.15555165
C       -4.58269392       8.35465919       4.88513585
C       -3.30714582       7.68864476       4.38386765
N       -3.13516172       6.40890276       4.19679561
N       -4.14839302       5.56819772       4.59113672
C       -2.18253262       8.59612496       3.99087578
C       -2.42287805       9.87942610       3.48252550
C       -1.35202769      10.70132545       3.12210882
C       -0.04136400      10.24455733       3.26136328
C        0.19490564       8.96318662       3.75576372
Br       1.97130623       8.34278304       3.93695402
C       -0.86635170       8.13461966       4.11832313
H       -3.59759906       0.68046651       1.37560618
H       -5.01361207       2.09572039       2.80370175
H       -1.56361203       4.48131316       3.83874096
H       -0.16628522       3.07309049       2.40723980
H       -5.25960024       8.48515444       4.03405332
H       -4.36858691       9.33696359       5.31474429
H       -3.43201856      10.25602354       3.33810962
H       -1.53844701      11.69722519       2.72537995
H        0.78556859      10.89088203       2.97722881
H       -0.66960436       7.13726898       4.50360696
C        1.79126677      -1.79126677       1.79126677
C        3.15534331      -1.88354141       1.53428772
C        3.95819198      -2.68963254       2.34716746
C        3.41069154      -3.41792653       3.41772577
C        2.03513790      -3.29965051       3.66377075
C        1.22729304      -2.49305155       2.85319752
C        4.30396601      -4.23412224       4.24868260
N        5.60261925      -4.00917972       4.40514029
N        6.11959537      -4.95415569       5.25620612
C        5.13704103      -5.75502014       5.57368909
S        5.19040128      -7.09414243       6.65047376
C        3.86483334      -8.05608220       5.90157342
C        2.67237237      -7.18780006       5.51948579
N        2.73144742      -5.98008951       5.02932317
N        3.96845145      -5.38597776       4.95329825
C        1.31709944      -7.81368243       5.63875149
C        1.13052148      -9.19114565       5.46316253
C       -0.14721808      -9.74460354       5.57807650
C       -1.24124648      -8.92693277       5.86159831
C       -1.05508441      -7.55536050       6.02376862
Br      -2.53965958      -6.44749440       6.40059600
C        0.21566191      -6.99256149       5.91107109
H        3.60713336      -1.33349113       0.71304727
H        5.02662365      -2.74622679       2.14018377
H        1.56854039      -3.81697132       4.49815443
H        0.16414773      -2.41668157       3.06578621
H        4.23839222      -8.54495131       4.99546447
H        3.57337322      -8.82737617       6.61954540
H        1.95736646      -9.85196874       5.21681652
H       -0.29271538     -10.81402262       5.43974492
H       -2.23200944      -9.36647272       5.94807897
H        0.34863983      -5.92137709       6.04046338
C       -0.00445707       0.01189536      -1.78238275
H       -0.66409135       0.67374010      -2.43557963
H        0.65740317      -0.63156657      -2.45157240
C       -0.90989263      -0.90692880      -0.91072765
C        0.90977584       0.90977584      -0.90977584
C       -0.00465871       1.77757030       0.00794375
H       -0.66225468       2.44313916      -0.64384735
H        0.64322798       2.43503045       0.67728295
C       -1.78241447       0.00034974      -0.00472694
H       -2.45427497      -0.65498947       0.64260836
H       -2.43311707       0.67328779      -0.65473579
C       -0.91132561       0.90220522       0.91563759
C       -0.01476271      -0.02253852       1.78660255
H       -0.67934791      -0.69751639       2.42135241
H        0.63392994       0.61504881       2.47327442
C        0.01484550      -1.77751727      -0.01636693
H        0.67870853      -2.42144646      -0.68295456
H       -0.62264859      -2.45592969       0.64226336
C        1.78714474       0.01002794       0.00389507
H        2.44202412       0.67113390       0.66197326
H        2.45385902      -0.65136977      -0.64189061
C        0.91606151      -0.90478549       0.90901405
