158
Properties=species:S:1:pos:R:3 pbc="F F F"
C        1.79126677       1.79126677      -1.79126677
C        1.45115770       3.12429339      -1.99772134
C        2.26422114       3.92764276      -2.80312808
C        3.41820915       3.41071184      -3.41742285
C        3.74634354       2.06721538      -3.18500023
C        2.93587242       1.25909246      -2.37857723
C        4.24395578       4.30467217      -4.23814291
N        4.29699554       5.62328760      -4.09665613
N        5.17704959       6.13560161      -5.01730598
C        5.61576352       5.12704087      -5.72294588
S        6.77953752       5.16780918      -6.98767077
C        6.19135764       3.73092556      -7.90020576
C        5.82855786       2.57476380      -6.97633656
N        5.25049156       2.67905424      -5.81131429
N        5.04988912       3.94431658      -5.31352175
C        6.08235063       1.19277073      -7.49441200
C        6.01848664       0.90268959      -8.86365343
C        6.25760271      -0.39762318      -9.31548244
C        6.55427892      -1.41162918      -8.40463486
C        6.60523724      -1.12331374      -7.04212120
C        6.36812573       0.17082054      -6.58034823
H        0.56441418       3.55190516      -1.53735242
H        1.99103134       4.97239229      -2.94961059
H        4.64481562       1.62798874      -3.61086179
H        3.21287457       0.22132317      -2.21241777
H        5.29961700       4.00534145      -8.47384956
H        6.98044821       3.44074343      -8.59910315
H        5.76541426       1.66390680      -9.59683066
H        6.20606345      -0.62361764     -10.37860635
H        6.73782114      -2.42077560      -8.76549671
H        6.41147711       0.38383442      -5.51516877
C        6.90601351      -2.17202052      -6.10225541
C        7.15791365      -3.05031245      -5.31511781
Br       7.56521485      -4.47043623      -4.04238288
C       -1.79126677      -1.79126677      -1.79126677
C       -2.01410632      -3.11881616      -1.44024996
C       -2.82518464      -3.92026960      -2.24953773
C       -3.41521061      -3.41145135      -3.41968187
C       -3.18504884      -2.06719913      -3.74631119
C       -2.37442864      -1.26047926      -2.93863420
C       -4.27172576      -4.29344596      -4.22159914
N       -4.92460354      -5.34651810      -3.74581762
N       -5.63492104      -5.92914284      -4.76589331
C       -5.37494876      -5.24337071      -5.84743080
S       -6.02697010      -5.48895596      -7.41909142
C       -4.64431474      -4.81931753      -8.35885669
C       -4.10099320      -3.53594482      -7.74272021
N       -3.98432703      -3.28978668      -6.46674638
N       -4.49906667      -4.21657581      -5.59208498
C       -3.57580255      -2.50269881      -8.69103200
C       -3.00446488      -2.86132203      -9.91904275
C       -2.52078914      -1.87373345     -10.78093938
C       -2.59955133      -0.52891683     -10.41881644
C       -3.15715336      -0.17536850      -9.19152285
C       -3.64273531      -1.15281727      -8.32374192
H       -1.57044976      -3.54084125      -0.54238075
H       -2.99854127      -4.95603555      -1.95845739
H       -3.64363144      -1.61703437      -4.62300034
H       -2.21296996      -0.22113858      -3.21250697
H       -3.83453745      -5.55618883      -8.38808173
H       -4.99516891      -4.64548065      -9.37964523
H       -2.90520391      -3.90080994     -10.22013787
H       -2.07518207      -2.15208347     -11.73378662
H       -2.21951989       0.23256089     -11.09558325
H       -4.07633849      -0.86481222      -7.36932958
C       -3.23281215       1.21281182      -8.81624807
C       -3.29617640       2.37541283      -8.50195543
Br      -3.39863102       4.25524034      -7.99377083
C       -1.79126677       1.79126677       1.79126677
C       -3.15654741       1.53874895       1.87787607
C       -3.95820743       2.34722470       2.68955985
C       -3.41112441       3.41932957       3.41588986
C       -2.03055004       3.64677260       3.32123651
C       -1.22357164       2.83940961       2.51056087
C       -4.29725006       4.22379979       4.26572100
N       -5.43657992       3.78995920       4.79040014
N       -5.99565280       4.79699488       5.53730950
C       -5.20701693       5.83295205       5.42578128
S       -5.38286497       7.36355796       6.18859454
C       -4.52529218       8.34859480       4.94860198
C       -3.25268995       7.66958120       4.45738708
N       -3.09880597       6.39039852       4.25165560
N       -4.13232782       5.56046549       4.61493415
C       -2.10673365       8.56437181       4.09842790
C       -2.31718432       9.85978679       3.60785855
C       -1.22694265      10.66938652       3.27913279
C        0.07344073      10.18835640       3.43236893
C        0.28008376       8.89517113       3.90895734
C       -0.80071414       8.07870852       4.23987184
H       -3.60849631       0.71809705       1.32707839
H       -5.02472547       2.13315095       2.75515779
H       -1.55360061       4.44280205       3.88726349
H       -0.15587856       3.03514865       2.45558830
H       -5.18550817       8.50455973       4.08874011
H       -4.30220735       9.31989946       5.39818797
H       -3.31737009      10.25567402       3.45310761
H       -1.39012482      11.67472235       2.89620499
H        0.91563844      10.82527616       3.17290453
H       -0.62703805       7.07193778       4.61150447
C        1.62276502       8.39760989       4.06140354
C        2.74726058       7.98090236       4.18907723
Br       4.56547479       7.30712152       4.39551478
C        1.79126677      -1.79126677       1.79126677
C        3.16837623      -1.80971050       1.59508570
C        3.97092576      -2.61626836       2.40779786
C        3.41071603      -3.41824324       3.41738457
C        2.02141916      -3.37385475       3.60328524
C        1.21375614      -2.56712431       2.79266166
C        4.30316055      -4.23166083       4.25194948
N        5.58136776      -3.95603576       4.47953574
N        6.10349096      -4.91587391       5.31059231
C        5.14653481      -5.77431970       5.54489575
S        5.21446571      -7.15902373       6.56152804
C        3.97091176      -8.14331279       5.70826441
C        2.75722217      -7.31260385       5.30983221
N        2.78124375      -6.08166157       4.87795477
N        3.99098313      -5.42945680       4.88728753
C        1.42901685      -8.00388543       5.33663109
C        1.31579550      -9.37853077       5.09050339
C        0.06173455      -9.99384129       5.11988613
C       -1.08135188      -9.24062711       5.38800937
C       -0.96766239      -7.87124529       5.62046180
C        0.27887925      -7.24703353       5.59338172
H        3.63025562      -1.20168667       0.82172946
H        5.04908224      -2.61479780       2.24915418
H        1.54262589      -3.95050715       4.39053311
H        0.13968825      -2.54888767       2.95803958
H        4.40760967      -8.57151159       4.79968674
H        3.68412298      -8.96000357       6.37616824
H        2.18318629      -9.98903333       4.85393210
H       -0.02671900     -11.06100679       4.92676437
H       -2.05314561      -9.72798171       5.40770616
H        0.35515980      -6.17824881       5.77707170
C       -2.14895194      -7.09364448       5.89155586
C       -3.13828194      -6.44240381       6.11859713
Br      -4.73794487      -5.38940272       6.48570366
C       -0.00445707       0.01189536      -1.78238275
H       -0.66409135       0.67374010      -2.43557963
H        0.65740317      -0.63156657      -2.45157240
C       -0.90989263      -0.90692880      -0.91072765
C        0.90977584       0.90977584      -0.90977584
C       -0.00465871       1.77757030       0.00794375
H       -0.66225468       2.44313916      -0.64384735
H        0.64322798       2.43503045       0.67728295
C       -1.78241447       0.00034974      -0.00472694
H       -2.45427497      -0.65498947       0.64260836
H       -2.43311707       0.67328779      -0.65473579
C       -0.91132561       0.90220522       0.91563759
C       -0.01476271      -0.02253852       1.78660255
H       -0.67934791      -0.69751639       2.42135241
H        0.63392994       0.61504881       2.47327442
C        0.01484550      -1.77751727      -0.01636693
H        0.67870853      -2.42144646      -0.68295456
H       -0.62264859      -2.45592969       0.64226336
C        1.78714474       0.01002794       0.00389507
H        2.44202412       0.67113390       0.66197326
H        2.45385902      -0.65136977      -0.64189061
C        0.91606151      -0.90478549       0.90901405
