146
Properties=species:S:1:pos:R:3 pbc="F F F"
C        1.79130723       1.79130723      -1.79130723
C        1.34482234       3.05335529      -2.17348468
C        2.15352102       3.86384837      -2.97837736
C        3.41755937       3.42582503      -3.40087994
C        3.83874255       2.14161192      -3.01659746
C        3.03395624       1.32859930      -2.21231782
C        4.30263853       4.24207394      -4.24065833
N        5.19874430       3.76277153      -5.09242167
N        5.87587367       4.81339713      -5.66190130
C        5.38218347       5.90849692      -5.14650446
S        5.92294583       7.51653471      -5.41164754
C        4.41637590       8.38633410      -4.94090414
C        3.71952248       7.76504775      -3.73300299
N        3.66604258       6.48986397      -3.46400348
N        4.37975390       5.63066009      -4.25220507
C        2.93709343       8.61957196      -2.83602879
C        2.32616343       8.24351621      -1.64701627
C        1.61844455       9.31255997      -1.02031537
C        1.71499513      10.46188168      -1.75911359
S        2.62194056      10.27208429      -3.17396785
H        0.37038162       3.41632833      -1.85644976
H        1.76848528       4.83596334      -3.27506464
H        4.80878953       1.76637472      -3.34210965
H        3.38811348       0.34212596      -1.92543324
H        4.70562584       9.42102590      -4.74694946
H        3.71371723       8.37539988      -5.78112080
H        2.38496527       7.23816409      -1.24205655
H        1.07641347       9.22702940      -0.08614657
C        1.10292150      11.70780080      -1.37616266
C        0.59030983      12.75125806      -1.05544125
Br      -0.23853989      14.43844020      -0.53686185
C       -1.79130723      -1.79130723      -1.79130723
C       -2.11005433      -1.37925859      -3.08234940
C       -2.91488685      -2.18816391      -3.89269599
C       -3.40060165      -3.41848018      -3.42518251
C       -3.07960313      -3.80450014      -2.11284866
C       -2.27562269      -2.99938410      -1.29986658
C       -4.24295187      -4.30260648      -4.23981246
N       -5.14491790      -5.14828751      -3.76073208
N       -5.70093017      -5.84347329      -4.80676864
C       -5.12764288      -5.41068941      -5.89885255
S       -5.35425842      -6.00188212      -7.49498754
C       -4.79545208      -4.54746503      -8.40069703
C       -3.58550198      -3.87210143      -7.75996981
N       -3.36133821      -3.78025288      -6.47831894
N       -4.20677862      -4.43173427      -5.62410618
C       -2.62900975      -3.15578554      -8.60789889
C       -1.43223322      -2.57481686      -8.20964582
C       -0.74064732      -1.93137172      -9.27930084
C       -1.44017893      -2.04434239     -10.45146909
S       -2.89431413      -2.89127424     -10.28240433
H       -1.74335502      -0.43145537      -3.46834933
H       -3.16115663      -1.82962596      -4.88873068
H       -3.45504886      -4.74714261      -1.71508244
H       -2.03849717      -3.32618557      -0.29098994
H       -4.57498925      -4.88253578      -9.41607617
H       -5.60832030      -3.81473254      -8.44718506
H       -1.06670854      -2.61026110      -7.18821627
H        0.20962187      -1.42090888      -9.17830242
C       -0.98917711      -1.49421674     -11.70349110
C       -0.61146309      -1.03348650     -12.75205954
Br      -0.00073147      -0.28852468     -14.44750602
C       -1.79130723       1.79130723       1.79130723
C       -2.98547865       1.28706717       2.29911650
C       -3.79253901       2.09284500       3.11036273
C       -3.41062540       3.40462624       3.42901270
C       -2.20974502       3.89671594       2.89049097
C       -1.40029143       3.09495795       2.07962398
C       -4.22104251       4.28474321       4.27958508
N       -4.24402804       5.60823794       4.20167152
N       -5.07221937       6.09610147       5.18285126
C       -5.53468344       5.06411143       5.83838998
S       -6.53010643       5.08360943       7.23741222
C       -7.22157802       3.42530318       7.09673295
C       -6.20359204       2.39090425       6.62307693
N       -5.24795685       2.60932324       5.76262993
N       -5.05316546       3.88837275       5.32108086
C       -6.34004126       0.99747641       7.05517651
C       -5.45723031      -0.04464365       6.80410924
C       -5.89447673      -1.28994900       7.34679215
C       -7.09659878      -1.14847144       7.98786306
S       -7.69783498       0.43155210       7.93860563
H       -3.30160242       0.27276314       2.06879416
H       -4.72761927       1.67629702       3.47559697
H       -1.89366566       4.91709940       3.10650886
H       -0.47367944       3.50005028       1.68194296
H       -7.61942760       3.17267404       8.08149957
H       -8.05105274       3.43773533       6.38144984
H       -4.53179813       0.08216082       6.25122696
H       -5.34977985      -2.22267752       7.26248711
C       -7.78563432      -2.23438860       8.63563922
C       -8.36270159      -3.14384421       9.17815176
Br      -9.29577056      -4.61435703      10.05534864
C        1.79130723      -1.79130723       1.79130723
C        3.06667220      -2.14530869       1.35968143
C        3.87710148      -2.95017306       2.16847221
C        3.42554538      -3.40074926       3.41796970
C        2.12840030      -3.04458514       3.82396649
C        1.31539835      -2.24043994       3.01903507
C        4.24105960      -4.24166600       4.30264521
N        3.76139403      -5.11594217       5.17660130
N        4.81012761      -5.67934095       5.86170355
C        5.90443399      -5.13795846       5.39479240
S        7.50759736      -5.38571664       5.95781408
C        8.39397735      -4.87581551       4.47382129
C        7.76417094      -3.66681722       3.78658506
N        6.48573525      -3.41786262       3.71631216
N        5.62819833      -4.23177579       4.40264495
C        8.61634460      -2.74309472       3.03325486
C        8.23061055      -1.55039714       2.43568821
C        9.30051820      -0.89460754       1.75619414
C       10.46023494      -1.61600833       1.85974713
S       10.27918331      -3.04866635       2.74014305
H        3.44021489      -1.80621566       0.39672917
H        4.86018517      -3.22447272       1.79485538
H        1.74280966      -3.39228070       4.78218355
H        0.31862839      -1.97566165       3.36138265
H        9.42042985      -4.66979741       4.78337394
H        8.40851518      -5.70429611       3.75742661
H        7.21783500      -1.16297249       2.48437842
H        9.20834156       0.04692259       1.22817046
C       11.70945904      -1.20259951       1.27482639
C       12.75568424      -0.85636963       0.78495527
Br      14.44734188      -0.29654519      -0.00712490
C       -0.00445707       0.01189536      -1.78238275
H       -0.66409135       0.67374010      -2.43557963
H        0.65740317      -0.63156657      -2.45157240
C       -0.90989263      -0.90692880      -0.91072765
C        0.90977584       0.90977584      -0.90977584
C       -0.00465871       1.77757030       0.00794375
H       -0.66225468       2.44313916      -0.64384735
H        0.64322798       2.43503045       0.67728295
C       -1.78241447       0.00034974      -0.00472694
H       -2.45427497      -0.65498947       0.64260836
H       -2.43311707       0.67328779      -0.65473579
C       -0.91132561       0.90220522       0.91563759
C       -0.01476271      -0.02253852       1.78660255
H       -0.67934791      -0.69751639       2.42135241
H        0.63392994       0.61504881       2.47327442
C        0.01484550      -1.77751727      -0.01636693
H        0.67870853      -2.42144646      -0.68295456
H       -0.62264859      -2.45592969       0.64226336
C        1.78714474       0.01002794       0.00389507
H        2.44202412       0.67113390       0.66197326
H        2.45385902      -0.65136977      -0.64189061
C        0.91606151      -0.90478549       0.90901405
