189
Properties=species:S:1:pos:R:3 pbc="F F F"
C        0.00000000       0.00000000       0.00000000
C       -0.71293848       6.00262756       2.17514716
O        0.63224335       6.08529047       2.62829720
C        1.17284030       7.33382794       2.78318478
C        0.44446990       8.52514991       2.66908181
C        1.05742909       9.75991786       2.89005346
C        2.40125206       9.81646656       3.23401627
C        3.13585907       8.63762931       3.34650183
C        2.54312741       7.38205360       3.10748822
C        3.37545644       6.11683717       3.26241358
N        4.52811410       6.05940523       2.34765084
C        4.47656616       5.52974753       1.06694189
S        2.98647195       4.81028921       0.48353115
C        3.68856463       3.43765259      -0.47964456
C        2.63542846       2.54579748      -1.09479889
C        2.48606127       2.48849896      -2.48975317
C        1.54947460       1.63300934      -3.07212001
C        0.74523724       0.82770700      -2.26840062
C        0.88267471       0.88267471      -0.88267471
C        1.82117782       1.73066445      -0.29339045
N        5.47823659       5.51109260       0.24826417
C        6.69252575       6.05919406       0.65075138
C        7.75458711       6.08384221      -0.25596773
C        8.99078181       6.62058022       0.11342316
C        9.16466962       7.13188591       1.39819679
Br      10.83463145       7.85992905       1.89742080
C        8.11639716       7.11146688       2.31453760
C        6.88304961       6.57241306       1.92761489
C        5.73764878       6.53398618       2.85252528
O        5.91368235       6.91558938       4.00796197
H       -0.84194163       6.50773363       1.21158019
H       -1.40380629       6.39953883       2.92691742
H       -0.95251738       4.94473668       2.03011705
H       -0.61227943       8.52782928       2.42231522
H        0.47900420      10.67702456       2.80470123
H        2.87727583      10.77424152       3.42597414
H        4.17963944       8.71018780       3.64433657
H        2.77418741       5.21179535       3.14382815
H        3.72296969       6.08105985       4.30315742
H        4.33149048       2.82732130       0.16588833
H        4.32267468       3.84430464      -1.27536523
H        3.10752352       3.10666873      -3.13508349
H        1.44963618       1.59292475      -4.15349510
H        0.01903533       0.16265457      -2.72890637
H        1.92304271       1.75852456       0.78903517
H        7.61414776       5.68362028      -1.25747462
H        9.80494257       6.63308292      -0.60717006
H        8.24674296       7.51046650       3.31718505
C        2.57335308       0.19520233      -5.88309732
O        2.94363038      -1.17732372      -5.85554327
C        3.13840435      -1.80505409      -7.05683371
C        3.14300148      -1.14888192      -8.29465757
C        3.39814488      -1.85178778      -9.47365058
C        3.65817335      -3.21472268      -9.42715304
C        3.65231670      -3.87780913      -8.20149412
C        3.37665516      -3.19263592      -7.00171202
C        3.40162541      -3.95009069      -5.68141476
N        2.41317206      -5.03960774      -5.61343281
C        1.10885845      -4.87734206      -5.17088820
S        0.57980318      -3.31187447      -4.58115871
C       -0.50713225      -3.86548157      -3.23324795
C       -1.10614169      -2.72234118      -2.44754196
C       -2.48959231      -2.48599526      -2.48872583
C       -3.06121331      -1.46325323      -1.73013742
C       -2.25755596      -0.65891656      -0.92487234
C       -0.88267471      -0.88267471      -0.88267471
C       -0.30473669      -1.90726178      -1.63323425
N        0.22811415      -5.82471531      -5.14446386
C        0.58429182      -7.09359624      -5.59166400
C       -0.38541466      -8.09860397      -5.61037842
C       -0.06429078      -9.38658822      -6.04705988
C        1.23513829      -9.66979097      -6.46370606
Br       1.66933669     -11.40991789      -7.05655850
C        2.21380112      -8.67936816      -6.44775940
C        1.87489167      -7.39301753      -6.00972191
C        2.86722433      -6.30520446      -5.98112955
O        4.02987891      -6.57446564      -6.27672305
H        1.65214112       0.34932599      -6.45567892
H        3.39030404       0.81278868      -6.27190785
H        2.38059799       0.51028334      -4.85298357
H        2.96498249      -0.08154724      -8.37666987
H        3.40529446      -1.32916070     -10.42746129
H        3.87652148      -3.76174957     -10.34031512
H        3.88656115      -4.94011134      -8.19194047
H        3.26755329      -3.28608985      -4.82361805
H        4.41395531      -4.35655890      -5.55826854
H        0.05805491      -4.50568206      -2.54529631
H       -1.31590719      -4.47531528      -3.65112208
H       -3.13502841      -3.10581144      -3.10843590
H       -4.13443103      -1.29620420      -1.76542080
H       -2.70979918       0.13473704      -0.33553413
H        0.76866265      -2.07561024      -1.58558451
H       -1.39813193      -7.87286479      -5.28424594
H       -0.83345502     -10.15506895      -6.05667159
H        3.22822704      -8.89504315      -6.77320830
C        1.85461062       6.05425868      -1.08510614
O        0.62144558       6.40854847      -1.69786627
C        0.28649307       7.73598800      -1.72601147
C        1.14262569       8.77102715      -1.32786346
C        0.74543609      10.10536678      -1.43263719
C       -0.50714660      10.41908252      -1.94252676
C       -1.36794019       9.39701833      -2.33797197
C       -0.99620219       8.04306447      -2.22157388
C       -1.95761667       6.95766492      -2.68540154
N       -3.23699974       6.95896498      -1.95609624
C       -3.46023611       6.25897259      -0.77983689
S       -2.19226171       5.24129837      -0.12033008
C       -3.21702722       3.87858247       0.51025210
C       -2.40485524       2.75681766       1.11435193
C       -2.48631216       2.48794470       2.49005655
C       -1.77804155       1.42456283       3.05199958
C       -0.97403031       0.61921348       2.24810106
C       -0.88267471       0.88267471       0.88267471
C       -1.59274772       1.93996125       0.31252375
N       -4.57153143       6.28745168      -0.11791809
C       -5.62148781       7.06950865      -0.59002804
C       -6.79984938       7.13791220       0.15663548
C       -7.87798903       7.90781435      -0.28786450
C       -7.77626836       8.60968287      -1.48759249
Br      -9.23227805       9.65266954      -2.08780789
C       -6.60930447       8.54889418      -2.24487220
C       -5.53702623       7.77479639      -1.78397483
C       -4.27615043       7.68225314      -2.53929390
O       -4.21450691       8.24004147      -3.63323861
H        1.89752003       6.39724438      -0.04551254
H        2.70268393       6.43565773      -1.66415867
H        1.92254827       4.96206356      -1.07741304
H        2.13776062       8.57366453      -0.94266928
H        1.42221998      10.89971073      -1.12616323
H       -0.81255272      11.45697147      -2.04398098
H       -2.33213385       9.67286079      -2.75950397
H       -1.51098678       5.96157981      -2.63041198
H       -2.13841311       7.11864986      -3.75619084
H       -3.82701324       3.47048662      -0.30457640
H       -3.90746575       4.26827596       1.26660284
H       -3.11198177       3.10294757       3.13434641
H       -1.85620233       1.22288331       4.11697039
H       -0.42650385      -0.20820993       2.69230235
H       -1.51806243       2.13014533      -0.75567566
H       -6.87458302       6.58840825       1.09225139
H       -8.78619138       7.95053659       0.30846758
H       -6.52468406       9.09576701      -3.18042665
C       -3.24154148      -0.87982557       5.47625783
O       -3.42242514      -2.27041629       5.24124546
C       -3.67098575      -3.06896223       6.32550699
C       -3.90536249      -2.58623874       7.61966175
C       -4.20088688      -3.46286627       8.66531411
C       -4.27229332      -4.82873582       8.42725986
C       -4.03717850      -5.31971985       7.14444520
C       -3.71671094      -4.45543700       6.07896672
C       -3.48856061      -5.03045995       4.68798070
N       -2.36428238      -5.97950975       4.62464111
C       -1.05017719      -5.61028272       4.37926626
S       -0.66674410      -3.93016107       4.04981303
C        0.63248850      -4.17189249       2.80148078
C        1.16305183      -2.87367459       2.23929841
C        2.48921986      -2.48593706       2.48915648
C        3.00550379      -1.31299474       1.93610543
C        2.20194359      -0.50845721       1.13094405
C        0.88267471      -0.88267471       0.88267471
C        0.36134550      -2.05711055       1.42677667
N       -0.05544910      -6.43734794       4.35916618
C       -0.29114611      -7.78668504       4.60542949
C        0.79350825      -8.66610806       4.63478074
C        0.59605382     -10.02880362       4.87308144
C       -0.69433753     -10.51312260       5.07957367
Br      -0.96178088     -12.35460607       5.40431450
C       -1.78621289      -9.64946134       5.05007799
C       -1.57087632      -8.28613284       4.81259126
C       -2.68754800      -7.32651285       4.78014482
O       -3.83107563      -7.76532544       4.88705996
H       -2.42127834      -0.69652107       6.17896908
H       -4.17213704      -0.41768629       5.82326589
H       -2.97371580      -0.41182660       4.52399145
H       -3.87994858      -1.52557226       7.84761095
H       -4.38727488      -3.07457276       9.66402964
H       -4.52125366      -5.51267926       9.23411761
H       -4.12701311      -6.39148044       6.98102335
H       -3.34437258      -4.24840934       3.93811786
H       -4.41748200      -5.53186132       4.38649281
H        0.24002710      -4.77727952       1.97561684
H        1.46044728      -4.73341169       3.24848558
H        3.13427141      -3.10276760       3.11223674
H        4.03604028      -1.02868903       2.13132671
H        2.61118838       0.40284538       0.70225327
H       -0.66776458      -2.34109068       1.21920600
H        1.79868578      -8.28351934       4.47303755
H        1.45322937     -10.69742782       4.89453836
H       -2.79431656     -10.02225008       5.21209089
