186
Properties=species:S:1:pos:R:3 pbc="F F F"
C        1.79096873       1.79096873      -1.79096873
C        1.55896581       1.84931201      -3.16298034
C        2.37430530       2.64304353      -3.97950264
C        3.42965394       3.37953269      -3.42626793
C        3.64108037       3.31624871      -2.03811847
C        2.82628434       2.52566770      -1.22258011
C        4.37737313       4.21339545      -4.23516177
O        5.31658391       4.76155616      -3.65201928
C        4.17394367       4.38778789      -5.73136117
S        5.72980897       4.12050168      -6.63563087
C        6.12551902       2.47529072      -6.10887226
N        5.09733952       1.69866828      -5.91519742
C        5.41229978       0.37306200      -5.62238516
C        4.44966750      -0.62714516      -5.36139139
C        5.05522602      -1.84700370      -5.13677691
S        6.76825200      -1.74702215      -5.24518581
C        6.69044837      -0.08631493      -5.59226500
C        7.83192775       0.75143549      -5.81469270
O        8.98813966       0.33053424      -5.77263667
N        7.47995061       2.09894877      -6.04680522
C        8.55998947       3.03465320      -6.15603596
C        8.64410932       4.14133764      -5.29730234
C        9.73308659       5.01562936      -5.37207320
C       10.74407266       4.78694015      -6.30288165
C       10.67862294       3.69103223      -7.15921638
C        9.59366348       2.81403667      -7.07963866
H        0.75200174       1.27411181      -3.61081934
H        2.16135069       2.63729624      -5.04262074
H        4.45271931       3.87930653      -1.57855024
H        3.01542500       2.48722744      -0.15265352
H        3.84238328       5.41721375      -5.90220998
H        3.41698235       3.73401978      -6.15821816
H        3.37746115      -0.47618803      -5.34326312
H        4.58305257      -2.79602700      -4.91668525
H        7.88629182       4.32168922      -4.53668277
H        9.78648272       5.86143933      -4.69085710
H       11.46733922       3.50166951      -7.88248215
H        9.56508182       1.95820127      -7.75067358
C       11.87157424       5.68008341      -6.37096478
C       12.81585681       6.42809089      -6.42798440
Br      14.34268186       7.63755572      -6.52018031
C       -1.79096873      -1.79096873      -1.79096873
C       -1.38911681      -3.08998647      -2.09215489
C       -2.18500540      -3.89814960      -2.91369647
C       -3.38616785      -3.40757945      -3.44170725
C       -3.78010881      -2.09786698      -3.11747176
C       -2.98695523      -1.29162962      -2.29594730
C       -4.27001023      -4.18902176      -4.36689835
O       -5.26814879      -3.63120393      -4.83080663
C       -3.94874832      -5.63458180      -4.70976262
S       -4.06348012      -5.91951366      -6.50294774
C       -2.89730472      -4.72152317      -7.09085411
N       -1.86976382      -4.52812276      -6.31331863
C       -0.89362255      -3.68045002      -6.83367437
C        0.28905841      -3.32488870      -6.14808343
C        1.07910343      -2.50050322      -6.92359944
S        0.36745083      -2.17856446      -8.45530204
C       -0.98127089      -3.13870353      -8.07642403
C       -2.09841413      -3.35067259      -8.94896923
O       -2.17690551      -2.84545815     -10.06894691
N       -3.09602582      -4.16278095      -8.36689783
C       -4.30666577      -4.32813848      -9.11587439
C       -5.54735219      -3.96644794      -8.56894917
C       -6.71617992      -4.07553513      -9.32907410
C       -6.65065126      -4.54370336     -10.63953984
C       -5.42725283      -4.90240103     -11.19921769
C       -4.25883929      -4.78695830     -10.44154122
H       -0.45338135      -3.48248500      -1.70106654
H       -1.81587023      -4.89414795      -3.13124949
H       -4.70999245      -1.68911528      -3.51146834
H       -3.30970681      -0.27912331      -2.06647584
H       -4.68874004      -6.26593809      -4.20712888
H       -2.96804906      -5.96528574      -4.37588549
H        0.55861984      -3.65170305      -5.15145304
H        2.04067834      -2.07008764      -6.67430152
H       -5.62112400      -3.56321006      -7.56032976
H       -7.66688822      -3.77994561      -8.89194532
H       -5.36720400      -5.26090368     -12.22338319
H       -3.31140686      -5.06311027     -10.89943954
C       -7.85261627      -4.64378771     -11.42621845
C       -8.85926196      -4.72760835     -12.08506179
Br     -10.48692291      -4.86313923     -13.15035575
C       -1.79096873       1.79096873       1.79096873
C       -2.63562883       2.73058773       1.20504160
C       -3.43457317       3.55369440       2.00858390
C       -3.38838379       3.44284220       3.40422856
C       -2.53780989       2.48119675       3.97644091
C       -1.74169541       1.65815580       3.17468093
C       -4.17302935       4.31722713       4.33567387
O       -3.99942351       4.18099670       5.54973915
C       -5.16571322       5.33306215       3.79431736
S       -4.94103081       6.95240765       4.59250306
C       -3.24146117       7.26712260       4.20109824
N       -2.85259071       6.81669842       3.04191608
C       -1.55399109       7.17189892       2.68185694
C       -0.93268132       6.77382852       1.47740388
C        0.33849705       7.30291984       1.38057644
S        0.74433215       8.26227268       2.74847513
C       -0.77188980       7.96918418       3.45532446
C       -1.18826907       8.48281528       4.72697159
O       -0.46873847       9.19406570       5.42850640
N       -2.48374583       8.05330305       5.08865571
C       -2.93687752       8.41430248       6.39949863
C       -3.32802602       7.43226480       7.32245848
C       -3.71173864       7.79027305       8.61877747
C       -3.70385598       9.13026366       8.99977482
C       -3.31402178      10.11687263       8.09797714
C       -2.92436723       9.75805739       6.80491418
H       -2.67457289       2.83870630       0.12365370
H       -4.05942784       4.28034460       1.50149523
H       -2.48162187       2.37015165       5.05880255
H       -1.08596857       0.92753172       3.64180567
H       -6.17178927       4.96671028       4.02330746
H       -5.11585989       5.47594146       2.71741893
H       -1.38118825       6.14497511       0.71837288
H        1.05301897       7.18015640       0.57657339
H       -3.30771599       6.37545898       7.06148884
H       -4.00096175       7.01434780       9.32346960
H       -3.29771223      11.16344032       8.39033833
H       -2.61401507      10.54225259       6.11768901
C       -4.08669555       9.49740634      10.33852054
C       -4.40732368       9.80488833      11.45972009
Br      -4.92575226      10.30206070      13.27260493
C        1.79096873      -1.79096873       1.79096873
C        3.17732085      -1.69765315       1.69628417
C        3.99159707      -2.51513817       2.49011622
C        3.42111793      -3.43399680       3.38033983
C        2.02020148      -3.50573086       3.46951521
C        1.20717449      -2.68859074       2.67876691
C        4.21959520      -4.37802058       4.22831456
O        3.61089977      -5.19641794       4.92284164
C        5.73824614      -4.31497546       4.23987113
S        6.46035278      -5.97416557       4.05142318
C        5.73155994      -6.46557950       2.51254256
N        5.55573889      -5.50014322       1.65532311
C        5.09921641      -5.90586410       0.40266643
C        4.82747611      -5.01930747      -0.66286986
C        4.42221047      -5.70993600      -1.78714723
S        4.37950272      -7.40806058      -1.52114764
C        4.90220905      -7.21141262       0.08277678
C        5.10221452      -8.28629067       1.00955075
O        4.90878413      -9.46625795       0.71626850
N        5.50436224      -7.83558660       2.28575576
C        5.60816005      -8.82874734       3.31377124
C        4.86439077      -8.71961960       4.49873894
C        4.92687796      -9.72381805       5.47009315
C        5.73027389     -10.84258740       5.26103317
C        6.47103401     -10.96894560       4.08889195
C        6.40313116      -9.96848174       3.11572590
H        3.63685698      -0.99874923       1.00132669
H        5.06366490      -2.41474254       2.36286023
H        1.54735743      -4.20918793       4.15403071
H        0.12602503      -2.76883863       2.76044230
H        6.04492367      -3.90793663       5.20894671
H        6.16419871      -3.67077212       3.47424946
H        4.92552972      -3.94157628      -0.62256975
H        4.15034218      -5.30847957      -2.75511093
H        4.20081594      -7.87366872       4.67017915
H        4.33478974      -9.62705082       6.37693859
H        7.09379529     -11.84247405       3.91522153
H        6.98177755     -10.08970667       2.20247245
C        5.78448105     -11.88247675       6.25566463
C        5.82987955     -12.75338408       7.08866847
Br       5.90328509     -14.16156757       8.43556523
C       -0.00445707       0.01189536      -1.78238275
H       -0.66409135       0.67374010      -2.43557963
H        0.65740317      -0.63156657      -2.45157240
C       -0.90989263      -0.90692880      -0.91072765
C        0.90977584       0.90977584      -0.90977584
C       -0.00465871       1.77757030       0.00794375
H       -0.66225468       2.44313916      -0.64384735
H        0.64322798       2.43503045       0.67728295
C       -1.78241447       0.00034974      -0.00472694
H       -2.45427497      -0.65498947       0.64260836
H       -2.43311707       0.67328779      -0.65473579
C       -0.91132561       0.90220522       0.91563759
C       -0.01476271      -0.02253852       1.78660255
H       -0.67934791      -0.69751639       2.42135241
H        0.63392994       0.61504881       2.47327442
C        0.01484550      -1.77751727      -0.01636693
H        0.67870853      -2.42144646      -0.68295456
H       -0.62264859      -2.45592969       0.64226336
C        1.78714474       0.01002794       0.00389507
H        2.44202412       0.67113390       0.66197326
H        2.45385902      -0.65136977      -0.64189061
C        0.91606151      -0.90478549       0.90901405
