157
Properties=species:S:1:pos:R:3 pbc="F F F"
C        0.00000000       0.00000000       0.00000000
C        0.88106470       0.88106470      -0.88106470
C        0.64906179       0.93940799      -2.25307632
C        1.46440127       1.73313950      -3.06959862
C        2.51974992       2.46962866      -2.51636390
C        2.73117634       2.40634469      -1.12821445
C        1.91638031       1.61576367      -0.31267608
C        3.46746910       3.30349143      -3.32525774
O        4.40667989       3.85165214      -2.74211526
C        3.26403964       3.47788387      -4.82145715
S        4.81990494       3.21059766      -5.72572685
C        5.21561499       1.56538669      -5.19896824
N        4.18743550       0.78876425      -5.00529339
C        4.50239575      -0.53684202      -4.71248114
C        3.53976347      -1.53704919      -4.45148737
C        4.14532199      -2.75690772      -4.22687289
S        5.85834798      -2.65692618      -4.33528179
C        5.78054434      -0.99621895      -4.68236098
C        6.92202373      -0.15846854      -4.90478868
O        8.07823564      -0.57936979      -4.86273265
N        6.57004658       1.18904475      -5.13690119
C        7.65008545       2.12474917      -5.24613194
C        7.73420530       3.23143362      -4.38739832
C        8.82318257       4.10572534      -4.46216918
C        9.83416864       3.87703613      -5.39297762
Br      11.31380929       5.04912413      -5.48232434
C        9.76871892       2.78112821      -6.24931236
C        8.68375945       1.90413264      -6.16973463
H       -0.15790228       0.36420779      -2.70091531
H        1.25144666       1.72739222      -4.13271672
H        3.54281529       2.96940250      -0.66864621
H        2.10552098       1.57732341       0.75725051
H        2.93247926       4.50730972      -4.99230595
H        2.50707832       2.82411575      -5.24831413
H        2.46755713      -1.38609205      -4.43335910
H        3.67314854      -3.70593103      -4.00678123
H        6.97638780       3.41178520      -3.62677875
H        8.87657869       4.95153530      -3.78095308
H       10.55743519       2.59176548      -6.97257812
H        8.65517779       1.04829725      -6.84076955
C       -0.88106470      -0.88106470      -0.88106470
C       -0.31558950      -1.58361861      -1.94233798
C       -1.12135755      -2.38092589      -2.76485595
C       -2.49929677      -2.47530345      -2.53114227
C       -3.04961120      -1.76748398      -1.44864030
C       -2.24537507      -0.97314499      -0.62630001
C       -3.43796042      -3.26601800      -3.39223985
O       -4.64431416      -3.21917468      -3.13695844
C       -2.91116663      -4.11305177      -4.53916225
S       -3.87378842      -3.82636361      -6.05607742
C       -3.66045980      -2.07693778      -6.24257235
N       -2.50173674      -1.62119200      -5.85856440
C       -2.28897945      -0.26896761      -6.12008781
C       -1.11014524       0.42605938      -5.77011580
C       -1.17243182       1.74131197      -6.18416730
S       -2.65385462       2.09785489      -6.98070386
C       -3.19779431       0.50260341      -6.77149546
C       -4.47163919       0.01444717      -7.21115185
O       -5.29569060       0.72332747      -7.78923537
N       -4.67931599      -1.34119095      -6.87548559
C       -5.97460035      -1.88253483      -7.16383137
C       -6.76465903      -2.44099902      -6.14737917
C       -8.05119716      -2.91238047      -6.42749945
C       -8.55528616      -2.82557465      -7.72332158
Br     -10.30008156      -3.44722917      -8.09794703
C       -7.78653432      -2.27000487      -8.74262028
C       -6.50365881      -1.79310350      -8.46086442
H        0.75026803      -1.51171958      -2.14576927
H       -0.63294814      -2.89105850      -3.58754895
H       -4.11763618      -1.82262000      -1.24060782
H       -2.69641313      -0.42898693       0.19980617
H       -3.01790201      -5.16379522      -4.25039771
H       -1.86061654      -3.95051865      -4.76837301
H       -0.25997167      -0.00155120      -5.25330130
H       -0.42457228       2.51485347      -6.06427994
H       -6.40856191      -2.48684767      -5.11954216
H       -8.65277709      -3.33166323      -5.62462675
H       -8.17594421      -2.19164858      -9.75418600
H       -5.92198733      -1.35379056      -9.26846670
C       -0.88106470       0.88106470       0.88106470
C       -2.09526712       1.35544233       0.39083665
C       -2.90084662       2.17802247       1.18827030
C       -2.49213481       2.53350411       2.48010356
C       -1.26871654       2.03593731       2.96108164
C       -0.46533149       1.21331635       2.16617223
C       -3.27066718       3.44740921       3.37814189
O       -2.78000472       3.75176368       4.46867888
C       -4.63446258       3.97085994       2.95805814
S       -4.75684783       5.76486528       3.23451634
C       -3.39113947       6.33138784       2.25744262
N       -3.16522390       5.63976200       1.17650724
C       -2.17286478       6.15837969       0.34679040
C       -1.76118918       5.55541688      -0.86240441
C       -0.78717242       6.31121676      -1.48310202
S       -0.39728316       7.72486785      -0.58544742
C       -1.52691930       7.32251059       0.61725648
C       -1.77161480       8.10155614       1.79517293
O       -1.17261683       9.14892775       2.04005392
N       -2.73696450       7.51602725       2.64300077
C       -2.95728225       8.15887164       3.90481266
C       -2.78330012       7.46033734       5.10939977
C       -2.94242225       8.11225280       6.33640204
C       -3.27328800       9.46519986       6.36569453
Br      -3.47168772      10.34979009       8.02377995
C       -3.44491998      10.17438218       5.17985732
C       -3.27931693       9.52417624       3.95413356
H       -2.42195035       1.09964655      -0.61437608
H       -3.82662319       2.53435033       0.75058208
H       -0.92504770       2.29344812       3.96236818
H        0.48056161       0.84788508       2.55827041
H       -5.38598022       3.46946143       3.57665329
H       -4.88973545       3.76944112       1.92033164
H       -2.15153517       4.62950832      -1.26621932
H       -0.28306586       6.11094542      -2.42001253
H       -2.48865494       6.41223492       5.11406187
H       -2.79258606       7.55717939       7.25930163
H       -3.69525546      11.23181136       5.19471198
H       -3.40827284      10.09743039       3.03854137
C        0.88106470      -0.88106470       0.88106470
C        2.23349301      -1.02618988       0.58186321
C        3.04403379      -1.84642799       1.37667761
C        2.50286758      -2.52943655       2.47343835
C        1.13830303      -2.36163793       2.76579452
C        0.32943188      -1.54151171       1.97387648
C        3.28919454      -3.46330264       3.34372109
O        2.69305976      -4.06903768       4.23834985
C        4.78383026      -3.64462442       3.13492597
S        5.22978053      -5.40834431       3.11810461
C        4.20186944      -5.98395068       1.79414981
N        4.02548753      -5.13069598       0.82530964
C        3.32157814      -5.62683394      -0.27037721
C        3.00701500      -4.86401513      -1.41682848
C        2.33448077      -5.62907736      -2.34827097
S        2.10082881      -7.24487437      -1.80899959
C        2.89707249      -6.91514488      -0.34553101
C        3.09315827      -7.86962746       0.70555814
O        2.69379261      -9.03211537       0.63569052
N        3.75394155      -7.31752036       1.82453061
C        3.88360918      -8.16266035       2.97469702
C        3.36266678      -7.77244986       4.21792059
C        3.44131548      -8.62955725       5.32020435
C        4.03809193      -9.88110424       5.18498621
Br       4.12912931     -11.04570025       6.67042820
C        4.55577706     -10.28589508       3.95748733
C        4.47102805      -9.43181568       2.85478300
H        2.66727801      -0.51326882      -0.27332601
H        4.08507066      -1.93853194       1.08795300
H        0.68920246      -2.87830912       3.61335242
H       -0.72503381      -1.43455767       2.21607003
H        5.29582866      -3.16227300       3.97399328
H        5.16585676      -3.18951904       2.22413241
H        3.25830890      -3.82104938      -1.56453411
H        1.96844352      -5.32680034      -3.32124511
H        2.85875501      -6.81522125       4.34097548
H        3.02210813      -8.31429633       6.27266262
H        5.01563352     -11.26380974       3.84233553
H        4.87268695      -9.76969867       1.90185897
