162
Properties=species:S:1:pos:R:3 pbc="F F F"
C        1.79151134       1.79151134      -1.79151134
C        3.13055305       1.46052408      -1.98243882
C        3.93588308       2.26920825      -2.78832898
C        3.40895358       3.41153530      -3.41513562
C        2.05674710       3.72939983      -3.20603284
C        1.25096119       2.92216593      -2.39879571
C        4.27165834       4.31260273      -4.27827166
H        3.61659908       4.96847959      -4.86837988
N        5.06439560       3.51173129      -5.20739092
C        6.02385052       4.14459429      -5.91918653
N        6.59502278       3.83861381      -7.05806390
N        7.44318972       4.88798769      -7.35177353
N        7.38989204       5.82682609      -6.41345019
N        6.55173608       5.33278619      -5.49024944
C        6.09512630       6.06577616      -4.31850957
H        5.47719813       6.87288093      -4.73653359
C        5.21430692       5.17345547      -3.42029163
C        7.22992581       6.66597809      -3.50774771
C        8.45684642       6.00883338      -3.30618893
C        9.45294658       6.60287814      -2.52586438
Br      11.10251129       5.71277620      -2.28031390
C        9.24165954       7.84202765      -1.92317915
C        8.02207700       8.49296460      -2.10033874
C        7.03311885       7.90256677      -2.88309477
F        5.85804535       8.53329739      -3.02030437
H        3.55704093       0.57889632      -1.51125450
H        4.98134502       1.99807175      -2.93018368
H        1.61539126       4.60917510      -3.67057044
H        0.20620100       3.18362029      -2.25079381
H        4.54993251       2.78321924      -5.69979344
H        5.84930572       4.52285545      -2.80167120
H        4.64005796       5.79537873      -2.72117945
H        8.64797064       5.03941612      -3.76321939
H       10.01604981       8.30385378      -1.31584269
H        7.83540059       9.45457637      -1.63187180
C       -1.79151134      -1.79151134      -1.79151134
C       -1.29047801      -2.99007185      -2.29296610
C       -2.09823288      -3.79463416      -3.10055328
C       -3.41500631      -3.41182111      -3.40879707
C       -3.89925280      -2.19706877      -2.89585820
C       -3.09153971      -1.39088697      -2.08949615
C       -4.30109546      -4.26215177      -4.29928551
H       -5.34080991      -3.92419460      -4.18845405
N       -4.23475072      -5.66170804      -3.88705906
C       -4.81751970      -6.57977849      -4.69033315
N       -5.27444736      -7.78121669      -4.43603644
N       -5.84000414      -8.22968487      -5.61326193
N       -5.73910923      -7.31742598      -6.57363312
N       -5.04598934      -6.31480285      -6.01397952
C       -4.78420618      -5.03637508      -6.65883077
H       -5.77737085      -4.57215771      -6.73708409
C       -3.88380507      -4.14888018      -5.77536877
C       -4.18125981      -5.17721036      -8.04518144
C       -3.23529991      -6.16553032      -8.37103850
C       -2.69648330      -6.22573282      -9.65947299
Br      -1.43922117      -7.57197325     -10.08440697
C       -3.07254142      -5.30141483     -10.63291007
C       -3.99459044      -4.30580776     -10.31498215
C       -4.53501821      -4.25106545      -9.03269672
F       -5.40117685      -3.27048753      -8.73998273
H       -0.27684392      -3.30750453      -2.06284330
H       -1.69415113      -4.73026523      -3.48518408
H       -4.91183070      -1.86542598      -3.11788011
H       -3.48509295      -0.45525844      -1.70026372
H       -4.32450078      -5.82324083      -2.88520358
H       -2.83311507      -4.45335021      -5.88736709
H       -3.93801388      -3.10562182      -6.11298045
H       -2.92206467      -6.89875019      -7.62979128
H       -2.65314921      -5.34779882     -11.63479826
H       -4.29334182      -3.57151846     -11.05698848
C       -1.79151134       1.79151134       1.79151134
C       -3.15909385       1.87235274       1.54206936
C       -3.96380638       2.68062473       2.34898921
C       -3.41032364       3.40985111       3.41544975
C       -2.02795857       3.31707445       3.64714675
C       -1.22205116       2.51030595       2.83956572
C       -4.26404834       4.30762457       4.29085982
H       -3.69694402       4.55847765       5.19803689
N       -5.47933430       3.60691133       4.69727219
C       -6.43694759       4.32581039       5.32487337
N       -7.39877758       3.95786343       6.13505949
N       -8.02120386       5.12228796       6.53945912
N       -7.44809538       6.18895137       5.99312158
N       -6.50085681       5.68649825       5.18741665
C       -5.53201744       6.49050328       4.45689131
H       -4.90779093       6.93282092       5.24600081
C       -4.64834892       5.60327489       3.55643022
C       -6.16958938       7.59762129       3.63644094
C       -7.38596101       7.43675149       2.94915623
C       -7.90760253       8.48648370       2.18760288
Br      -9.55271342       8.25811225       1.28477572
C       -7.22596727       9.69800073       2.08289833
C       -6.00996951       9.86133334       2.74407751
C       -5.49478921       8.81665847       3.50733271
F       -4.31158131       8.98524365       4.11482215
H       -3.60846153       1.31291769       0.72581253
H       -5.03225994       2.73379735       2.14354316
H       -1.56326733       3.87162010       4.46024936
H       -0.15456979       2.44994298       3.03610234
H       -5.33883418       2.65688368       5.03722733
H       -5.18665832       5.35759970       2.62957435
H       -3.74971442       6.15536544       3.25153628
H       -7.93825990       6.50067813       3.01166812
H       -7.63127931      10.51425332       1.49021366
H       -5.45993393      10.79439613       2.66751870
C        1.79151134      -1.79151134       1.79151134
C        1.22487491      -2.84645075       2.50219028
C        2.03298006      -3.65108272       3.30935754
C        3.41455609      -3.41259550       3.40847290
C        3.96503810      -2.34083626       2.68630541
C        3.15732517      -1.53447282       1.88012484
C        4.30539938      -4.26297387       4.29415948
H        5.35356261      -4.08086115       4.01903479
N        4.02225153      -5.67988673       4.08137956
C        4.59508670      -6.56697116       4.92557349
N        4.87101920      -7.83970674       4.78097455
N        5.53119434      -8.21864963       5.93310697
N        5.66542427      -7.19530349       6.76944057
N        5.02607852      -6.18196454       6.16672865
C        5.00290347      -4.81371049       6.66279807
H        6.04500416      -4.47909705       6.56251145
C        4.10323861      -3.92403687       5.78077855
C        4.57647649      -4.71079026       8.11638486
C        3.57318038      -5.52038538       8.67830297
C        3.20632461      -5.35800894      10.01735556
Br       1.86796546      -6.46714781      10.76048812
C        3.81316149      -4.38439599      10.80930885
C        4.79482146      -3.56353826      10.25702064
C        5.16343996      -3.73078507       8.92455536
F        6.09167014      -2.91438165       8.40559532
H        0.15965020      -3.05159130       2.43595026
H        1.57698739      -4.47367918       3.85893388
H        5.02980887      -2.12251386       2.74281407
H        3.60234516      -0.71102220       1.32724774
H        3.95914660      -5.96764879       3.10614980
H        3.04833333      -4.07159897       6.05390008
H        4.32299666      -2.86493129       5.96868818
H        3.08120752      -6.28712398       8.08227465
H        3.52754273      -4.25765510      11.85054847
H        5.27276292      -2.79374142      10.85534441
C       -0.00445707       0.01189536      -1.78238275
H       -0.66409135       0.67374010      -2.43557963
H        0.65740317      -0.63156657      -2.45157240
C       -0.90989263      -0.90692880      -0.91072765
C        0.90977584       0.90977584      -0.90977584
C       -0.00465871       1.77757030       0.00794375
H       -0.66225468       2.44313916      -0.64384735
H        0.64322798       2.43503045       0.67728295
C       -1.78241447       0.00034974      -0.00472694
H       -2.45427497      -0.65498947       0.64260836
H       -2.43311707       0.67328779      -0.65473579
C       -0.91132561       0.90220522       0.91563759
C       -0.01476271      -0.02253852       1.78660255
H       -0.67934791      -0.69751639       2.42135241
H        0.63392994       0.61504881       2.47327442
C        0.01484550      -1.77751727      -0.01636693
H        0.67870853      -2.42144646      -0.68295456
H       -0.62264859      -2.45592969       0.64226336
C        1.78714474       0.01002794       0.00389507
H        2.44202412       0.67113390       0.66197326
H        2.45385902      -0.65136977      -0.64189061
C        0.91606151      -0.90478549       0.90901405
