145
Properties=species:S:1:pos:R:3 pbc="F F F"
C        0.00000000       0.00000000       0.00000000
C        0.88145954       0.88145954      -0.88145954
C        0.52791828       2.20750510      -1.10793207
C        1.33470547       3.01151625      -1.91745687
C        2.50900572       2.50571542      -2.50705773
C        2.83649905       1.15937298      -2.26985908
C        2.03074744       0.35313604      -1.45991175
C        3.34494375       3.42285001      -3.39101500
H        2.65825444       3.79537315      -4.16342387
N        4.40819623       2.72517992      -4.09948373
C        5.65622252       2.66467703      -3.60069261
N        6.67348760       1.94702895      -4.00035196
C        7.67547087       2.33143336      -3.14829169
N        7.33671205       3.24003582      -2.22661376
N        6.03363104       3.41644885      -2.52065607
C        5.15097956       4.31840684      -1.78834981
H        5.73956144       5.23862456      -1.66255531
C        3.92412144       4.65517113      -2.66342131
C        4.79486646       3.83021976      -0.38983499
C        5.06922579       2.53763050       0.09025862
C        4.72205249       2.17409615       1.39549059
Br       5.10442771       0.42805244       2.01079345
C        4.10151311       3.08384983       2.24825019
C        3.82611899       4.36938007       1.79143037
C        4.17489390       4.72883368       0.49137807
F        3.90578331       5.97713320       0.08208782
H       -0.37319288       2.62353614      -0.66534521
H        1.02975045       4.04216496      -2.08954551
H        3.72691768       0.71160450      -2.70729363
H        2.31102717      -0.68345996      -1.29075168
H        4.13028769       2.03579841      -4.79174861
H        8.68147123       1.93483140      -3.20348923
H        3.15137983       5.18700468      -2.09858287
H        4.26217534       5.35828996      -3.43944089
H        5.56225870       1.80039324      -0.54052058
H        3.83597444       2.80313711       3.26354246
H        3.34735986       5.09656512       2.44018834
C       -0.88145954      -0.88145954      -0.88145954
C       -1.78448577      -0.29614489      -1.76272479
C       -2.59229195      -1.10501138      -2.56637526
C       -2.50586422      -2.50908725      -2.50682740
C       -1.59226224      -3.07368020      -1.59978867
C       -0.78277372      -2.26614705      -0.79487446
C       -3.41928286      -3.34298930      -3.39653660
H       -4.44075871      -3.01186287      -3.16442988
N       -3.37728722      -4.76548752      -3.09008513
C       -2.56175260      -5.59982996      -3.76000960
N       -2.26557506      -6.84801984      -3.50727360
C       -1.43126830      -7.18226808      -4.54165954
N       -1.17669591      -6.20620273      -5.42046299
N       -1.89025378      -5.19742478      -4.88305740
C       -1.95248999      -3.85468755      -5.45055868
H       -2.09492458      -4.01712003      -6.52869670
C       -3.20368534      -3.12884859      -4.91017995
C       -0.66268911      -3.05936816      -5.29286394
C        0.41393297      -3.45205647      -4.47847417
C        1.57105023      -2.67007703      -4.40163125
Br       3.00103394      -3.22562234      -3.29709830
C        1.68383184      -1.48928789      -5.13165669
C        0.62963568      -1.08714522      -5.94655915
C       -0.52079577      -1.86929896      -6.02225478
F       -1.51623467      -1.46164538      -6.82294865
H       -1.87185966       0.78503838      -1.82886719
H       -3.29980521      -0.62300960      -3.23864611
H       -1.48917853      -4.15295252      -1.50368478
H       -0.08229954      -2.73058879      -0.10543055
H       -3.72313490      -5.05478376      -2.17991605
H       -0.99725069      -8.16776832      -4.65477285
H       -3.20375039      -2.06474964      -5.16846737
H       -4.07609334      -3.55965647      -5.42415639
H        0.37010422      -4.37303749      -3.90023924
H        2.58430084      -0.88418315      -5.07568678
H        0.69736753      -0.17284905      -6.52825512
C       -0.88145954       0.88145954       0.88145954
C       -0.30473124       1.88222391       1.65640030
C       -1.11322775       2.68581864       2.46463221
C       -2.50914857       2.50656217       2.50606814
C       -3.06390092       1.48094494       1.72088525
C       -2.25675302       0.67584172       0.91120049
C       -3.34154256       3.40281460       3.41445160
H       -2.91059244       3.28800006       4.41845896
N       -4.73065526       2.98079248       3.52141214
C       -5.68295421       3.50795369       2.73068426
N       -6.92405430       3.13107323       2.56574098
C       -7.41307981       4.05859208       1.68352403
N       -6.54096324       4.98726596       1.27513242
N       -5.43519466       4.59678199       1.93875932
C       -4.14642984       5.27338476       1.83792161
H       -4.39034440       6.34332767       1.90706924
C       -3.27823611       4.90415953       3.06031825
C       -3.44638257       5.06806386       0.50047479
C       -3.85159530       4.13400697      -0.46900460
C       -3.16120732       4.01947283      -1.68002210
Br      -3.73115521       2.75343331      -2.96290182
C       -2.06146119       4.82920163      -1.95355007
C       -1.64870369       5.76256946      -1.00720447
C       -2.33970078       5.87536720       0.19728153
F       -1.92494333       6.78994295       1.08594241
H        0.77007221       2.04221916       1.64354151
H       -0.63653123       3.45372159       3.07120809
H       -4.13545301       1.28998211       1.72038070
H       -2.71395072      -0.10709120       0.31145936
H       -4.91078546       2.08400608       3.96304317
H       -8.43630741       4.05402403       1.32946043
H       -2.24415880       5.24596019       2.94684840
H       -3.68088826       5.45607159       3.92294635
H       -4.71213360       3.48981780      -0.29877888
H       -1.52794280       4.74359824      -2.89597195
H       -0.79702179       6.40757414      -1.20085929
C        0.88145954      -0.88145954       0.88145954
C        2.26090725      -0.70314121       0.87930698
C        3.06588178      -1.51308941       1.68470740
C        2.50537986      -2.50790466       2.50849436
C        1.10961232      -2.67322458       2.48289421
C        0.30221389      -1.86366191       1.67791943
C        3.43078051      -3.37096529       3.35706297
H        4.14804480      -3.81543925       2.65356741
N        2.74919447      -4.48699268       3.99667273
C        2.27865923      -4.38962246       5.25331047
N        1.50059038      -5.20863518       5.91164295
C        1.39853707      -4.61445532       7.14220353
N        2.05839612      -3.45952063       7.28544488
N        2.59088984      -3.32481015       6.05503597
C        3.41702418      -2.19336640       5.64734563
H        4.11195304      -2.04273141       6.48605685
C        4.24790234      -2.58779270       4.40701885
C        2.64103723      -0.89292554       5.48095844
C        1.23793004      -0.80465387       5.47401376
C        0.60290265       0.43334126       5.33109665
Br      -1.28554640       0.51822591       5.32545902
C        1.34488874       1.60435900       5.19658301
C        2.73500998       1.53656958       5.20562829
C        3.36440487       0.30206438       5.35000901
F        4.70487666       0.26873972       5.36469175
H        2.71986188       0.05712925       0.25295584
H        4.14349619      -1.36223806       1.65572667
H        0.62189510      -3.43256354       3.09135719
H       -0.77473873      -2.01152361       1.68153401
H        2.36318514      -5.20450770       3.39014187
H        0.82463117      -5.03868672       7.95647398
H        4.75218961      -1.72466638       3.96011140
H        5.05136725      -3.25510177       4.75343718
H        0.62164283      -1.69454761       5.58698208
H        0.85186965       2.56651649       5.09021593
H        3.33368532       2.43699425       5.10704557
