166
Properties=species:S:1:pos:R:3 pbc="F F F"
C        1.79136356       1.79136356      -1.79136356
C        1.43782231       3.11740912      -2.01783609
C        2.24460950       3.92142028      -2.82736089
C        3.41890975       3.41561945      -3.41696175
C        3.74640307       2.06927701      -3.17976311
C        2.94065147       1.26304006      -2.36981577
C        4.25484778       4.33275403      -4.30091903
H        3.56815847       4.70527717      -5.07332790
N        5.31810025       3.63508394      -5.00938775
C        6.56612655       3.57458106      -4.51059663
N        7.58339162       2.85693297      -4.91025599
C        8.58537489       3.24133739      -4.05819572
N        8.24661607       4.14993985      -3.13651778
N        6.94353506       4.32635288      -3.43056009
C        6.06088358       5.22831087      -2.69825384
H        6.64946546       6.14852858      -2.57245934
C        4.83402546       5.56507516      -3.57332533
C        5.70477048       4.74012378      -1.29973902
C        5.97912981       3.44753453      -0.81964540
C        5.63195652       3.08400017       0.48558657
Br       6.01433174       1.33795647       1.10088942
C        5.01141713       3.99375385       1.33834617
C        4.73602301       5.27928410       0.88152635
C        5.08479793       5.63873770      -0.41852595
F        4.81568734       6.88703723      -0.82781620
H        0.53671114       3.53344016      -1.57524923
H        1.93965447       4.95206898      -2.99944954
H        4.63682171       1.62150853      -3.61719766
H        3.22093119       0.22644407      -2.20065570
H        5.04019172       2.94570243      -5.70165264
H        9.59137526       2.84473542      -4.11339326
H        4.06128386       6.09690871      -3.00848690
H        5.17207936       6.26819399      -4.34934492
H        6.47216272       2.71029726      -1.45042460
H        4.74587847       3.71304114       2.35363844
H        4.25726388       6.00646915       1.53028432
C       -1.79136356      -1.79136356      -1.79136356
C       -3.17504947      -1.73794889      -1.66006916
C       -3.97965394      -2.54782535      -2.46591138
C       -3.41535531      -3.41753442      -3.41860122
C       -2.01405420      -3.45886436      -3.52252463
C       -1.20705020      -2.64911880      -2.71733830
C       -4.33899839      -4.28736140      -4.26216105
H       -4.95154541      -4.85044840      -3.54476972
N       -3.62808705      -5.28166825      -5.05281665
C       -3.28144409      -5.03979662      -6.33006353
N       -2.50081320      -5.72911762      -7.12064976
C       -2.55836474      -5.02921612      -8.29732714
N       -3.32093811      -3.93010095      -8.28203464
N       -3.75047358      -3.94499889      -7.00497556
C       -4.62687719      -2.92928870      -6.43128240
H       -5.40406072      -2.77310831      -7.19328435
C       -5.30827896      -3.49691766      -5.16722934
C       -3.94846579      -1.58269983      -6.21346767
C       -2.56235938      -1.37012628      -6.31382409
C       -2.02083999      -0.09620569      -6.11332445
Br      -0.15282049       0.15653279      -6.25511108
C       -2.84140431       0.98873224      -5.81415274
C       -4.21648963       0.79782357      -5.71511470
C       -4.75283553      -0.47200890      -5.91721715
F       -6.08197133      -0.62380334      -5.82476609
H       -3.63696685      -1.07576251      -0.93267118
H       -5.05908485      -2.49687355      -2.33521459
H       -1.52206309      -4.11902096      -4.23444383
H       -0.12625222      -2.69924395      -2.82253479
H       -3.13178815      -6.00911832      -4.54664031
H       -2.02673515      -5.33214347      -9.19062531
H       -5.83968798      -2.72196561      -4.60502587
H       -6.08202929      -4.20274156      -5.50484742
H       -1.88770729      -2.18903291      -6.55614438
H       -2.42147594       1.97915055      -5.66295578
H       -4.87581129       1.62993939      -5.48757681
C       -1.79136356       1.79136356       1.79136356
C       -1.72040997       3.17575589       1.67690166
C       -2.52603813       3.98053146       2.48682108
C       -3.41850813       3.41531609       3.41766673
C       -3.46188480       2.01393254       3.51962584
C       -2.65680564       1.20674060       2.70996106
C       -4.26436698       4.33992453       4.28422932
H       -3.55120860       5.00387482       4.79168011
N       -4.98392367       3.64007929       5.33856899
C       -6.25421754       3.23253092       5.16455577
N       -6.98304715       2.45030875       5.91722468
C       -8.18829245       2.43112679       5.26548875
N       -8.24916917       3.14697925       4.13692529
N       -6.99166205       3.62776330       4.08102268
C       -6.49649584       4.48320098       3.00775147
H       -7.29605301       5.22189032       2.85251004
C       -5.24030034       5.23806083       3.49406479
C       -6.30477060       3.75827521       1.68158748
C       -6.35543211       2.36156649       1.52931114
C       -6.18380612       1.77565004       0.27091396
Br      -6.25725249      -0.10550718       0.09965348
C       -5.96314222       2.56140405      -0.85772146
C       -5.91420624       3.94614958      -0.72657506
C       -6.08737996       4.52666555       0.52801607
F       -6.04466747       5.86363549       0.62223780
H       -1.04021798       3.63839847       0.96678408
H       -2.44283491       5.06126136       2.38707672
H       -4.12544578       1.52180432       4.22827779
H       -2.71452755       0.12563664       2.80786676
H       -4.42855830       3.19544828       6.06354021
H       -9.04562944       1.87716729       5.62670721
H       -4.73246974       5.75871102       2.67549870
H       -5.58138563       6.02650172       4.18173091
H       -6.53615059       1.71261868       2.38411532
H       -5.83443060       2.10676877      -1.83591821
H       -5.74813407       4.57864504      -1.59333040
C        1.79136356      -1.79136356       1.79136356
C        1.71588536      -1.68130824       3.17587391
C        2.52577897      -2.48707348       3.98053822
C        3.41758188      -3.41856881       3.41534025
C        3.48083010      -3.50117474       2.01343834
C        2.67111197      -2.69602792       1.20636741
C        4.28623780      -4.26292902       4.33935402
H        4.82969561      -3.54654332       4.97052460
N        5.30235247      -5.02844663       3.63177285
C        5.08443907      -6.30381976       3.26304541
N        5.79664701      -7.07267675       2.48125682
C        5.11343499      -8.26013642       2.51133658
N        4.00323287      -8.27210339       3.25773744
N        3.99301785      -7.00144517       3.70598501
C        2.95630010      -6.45559874       4.57554944
H        2.80009615      -7.23118675       5.33917047
C        3.49522407      -5.19361953       5.28358236
C        1.61665671      -6.24740867       3.88056791
C        1.42578221      -6.33036771       2.49015983
C        0.15705505      -6.14045305       1.93286202
Br      -0.06635087      -6.25830126       0.05944839
C       -0.94400896      -5.86925190       2.74158188
C       -0.77461483      -5.78776348       4.12063211
C        0.49012404      -5.97926370       4.67267385
F        0.62117830      -5.90425150       6.00511096
H        1.03637743      -0.97052445       3.63849866
H        2.45719962      -2.37308673       5.06088664
H        4.15851776      -4.19606852       1.52094162
H        2.73850817      -2.78451170       0.12501109
H        6.02939363      -4.50446377       3.15368938
H        5.43722553      -9.14098340       1.97129500
H        2.70440292      -4.65066199       5.81161455
H        4.19462199      -5.53231987       6.06267641
H        2.25790916      -6.55075586       1.82421957
H       -1.93033617      -5.72629924       2.30931809
H       -1.61950675      -5.58212040       4.77083506
C       -0.00445707       0.01189536      -1.78238275
H       -0.66409135       0.67374010      -2.43557963
H        0.65740317      -0.63156657      -2.45157240
C       -0.90989263      -0.90692880      -0.91072765
C        0.90977584       0.90977584      -0.90977584
C       -0.00465871       1.77757030       0.00794375
H       -0.66225468       2.44313916      -0.64384735
H        0.64322798       2.43503045       0.67728295
C       -1.78241447       0.00034974      -0.00472694
H       -2.45427497      -0.65498947       0.64260836
H       -2.43311707       0.67328779      -0.65473579
C       -0.91132561       0.90220522       0.91563759
C       -0.01476271      -0.02253852       1.78660255
H       -0.67934791      -0.69751639       2.42135241
H        0.63392994       0.61504881       2.47327442
C        0.01484550      -1.77751727      -0.01636693
H        0.67870853      -2.42144646      -0.68295456
H       -0.62264859      -2.45592969       0.64226336
C        1.78714474       0.01002794       0.00389507
H        2.44202412       0.67113390       0.66197326
H        2.45385902      -0.65136977      -0.64189061
C        0.91606151      -0.90478549       0.90901405
