162
Properties=species:S:1:pos:R:3 pbc="F F F"
C        1.79161798       1.79161798      -1.79161798
C        1.46138619       1.97727399      -3.13325286
C        2.26811208       2.78364845      -3.93985302
C        3.40454286       3.40335330      -3.40490246
C        3.72650132       3.21038994      -2.05541178
C        2.91979748       2.40443427      -1.24832098
C        4.25217008       4.24736877      -4.25253566
C        5.29724716       3.71717952      -4.91710946
C        6.19075544       4.59137951      -5.79187976
H        6.11177594       4.21742075      -6.82055862
N        5.69453752       5.96503701      -5.85081061
N        6.18856263       6.92818213      -6.64345638
N        5.42595190       7.98804256      -6.39215943
N        4.43939856       7.69164170      -5.46902786
C        4.61014381       6.42992554      -5.15689850
N        3.93717715       5.58651302      -4.34776702
C        7.62977366       4.55975546      -5.31388254
C        8.00065668       5.00222529      -4.03007926
C        9.33710721       4.94973045      -3.62702091
C       10.32064491       4.46345038      -4.48690873
C        9.96364816       4.02415662      -5.76105136
C        8.63067952       4.07392140      -6.16139846
F        8.31093345       3.63109056      -7.38511202
H        0.58182675       1.50130121      -3.55932425
H        2.00453218       2.92587634      -4.98591570
H        4.60447345       3.68733544      -1.62484558
H        3.17854189       2.26242239      -0.20213506
H        5.53309426       2.65886098      -4.85089510
H        3.10741506       5.90788827      -3.85656642
H        7.24871747       5.39078352      -3.34526473
H       11.36160553       4.42415010      -4.17615879
H       10.71567978       3.64316822      -6.44558791
C        9.70052301       5.39815228      -2.30776095
C       10.00488374       5.77370556      -1.20288074
Br      10.49700930       6.38094345       0.58361711
C       -1.79161798      -1.79161798      -1.79161798
C       -3.12182653      -2.01243335      -1.43765315
C       -3.92829740      -2.81920565      -2.24411049
C       -3.40435858      -3.40502685      -3.40341319
C       -2.06663988      -3.17584051      -3.74982265
C       -1.25991290      -2.36876533      -2.94387449
C       -4.25048735      -4.25367152      -4.24791564
C       -4.31073737      -5.58301680      -4.03778197
C       -5.18000454      -6.47415017      -4.91985999
H       -5.93601756      -6.93919789      -4.27453987
N       -5.94228000      -5.68358112      -5.88452402
N       -6.88982445      -6.17009524      -6.70028145
N       -7.32806779      -5.10820570      -7.36988041
N       -6.68367520      -3.95411103      -6.96228189
C       -5.84052411      -4.32637529      -6.03006844
N       -4.97885634      -3.64461960      -5.24798126
C       -4.34912430      -7.52836486      -5.62592250
C       -3.31899645      -7.19026271      -6.52370207
C       -2.57305060      -8.19284984      -7.14795812
C       -2.83776299      -9.53795439      -6.89528664
C       -3.85695720      -9.88314966      -6.00874928
C       -4.59844359      -8.88321180      -5.38434400
F       -5.56209099      -9.24061755      -4.52442749
H       -3.53926948      -1.56301074      -0.54017199
H       -4.96611355      -2.98680856      -1.96340211
H       -1.64616127      -3.62174598      -4.64874722
H       -0.22343898      -2.19686916      -3.22279120
H       -3.74661232      -6.05679437      -3.23944365
H       -4.92108351      -2.63231589      -5.31847035
H       -3.09990454      -6.14576911      -6.73909207
H       -2.26016737     -10.31975162      -7.38199543
H       -4.07893419     -10.92548019      -5.80002152
C       -1.51683954      -7.83185706      -8.05773964
C       -0.63226278      -7.52952561      -8.81968166
Br       0.79802303      -7.04068121     -10.05167746
C       -1.79161798       1.79161798       1.79161798
C       -1.76142462       1.63403756       3.17645086
C       -2.56818752       2.44045274       3.98297328
C       -3.40485525       3.40334149       3.40460187
C       -3.42669067       3.55348892       2.01212344
C       -2.61975204       2.74757132       1.20522936
C       -4.25317225       4.24752805       4.25137420
C       -5.50781111       3.86497523       4.55874980
C       -6.40053456       4.74366716       5.42981299
H       -6.64169884       4.17266938       6.33538709
N       -5.68021943       5.92235447       5.90781125
N       -6.15598947       6.80621613       6.79799554
N       -5.16787149       7.68172126       6.95656115
N       -4.06489574       7.34032272       6.19484966
C       -4.39359372       6.23894390       5.56443022
N       -3.72066749       5.42961043       4.72117928
C       -7.66306591       5.14752971       4.69281605
C       -7.62603909       5.90194755       3.50497458
C       -8.81272733       6.24721311       2.85391813
C      -10.04693079       5.85458818       3.36948505
C      -10.09427451       5.10834486       4.54623676
C       -8.91077644       4.76182580       5.19339715
F       -8.98225278       4.03070100       6.31418225
H       -1.11604279       0.88998328       3.63642614
H       -2.53931782       2.31372862       5.06327778
H       -4.06930450       4.29894798       1.54840199
H       -2.64394631       2.87337247       0.12578056
H       -5.91833639       2.92593868       4.19857526
H       -2.75218351       5.63156764       4.48811860
H       -6.67272988       6.22332744       3.08870840
H      -10.97169957       6.12441919       2.86579566
H      -11.04616278       4.79424883       4.96402429
C       -8.75900665       7.01227748       1.63515212
C       -8.71401557       7.65301889       0.61443558
Br      -8.64126882       8.68904356      -1.03597673
C        1.79161798      -1.79161798       1.79161798
C        3.12085116      -2.01528039       1.43578149
C        3.92732150      -2.82205271       2.24223934
C        3.40435585      -3.40502844       3.40341432
C        2.06761390      -3.17299515       3.75169399
C        1.26088883      -2.36591865       2.94574524
C        4.25047762      -4.25367586       4.24792103
C        4.30812733      -5.58347407       4.03993474
C        5.17737925      -6.47458575       4.92204971
H        5.93151332      -6.94200057       4.27624143
N        5.94261915      -5.68367938       5.88408662
N        6.89071917      -6.17041736       6.69906461
N        7.33188694      -5.10814143       7.36612553
N        6.68875554      -3.95364838       6.95766420
C        5.84340149      -4.32605955       6.02750680
N        4.98156452      -3.64416897       5.24572371
C        4.34591552      -7.52619980       5.63129635
C        3.31788006      -7.18484024       6.53024093
C        2.57129928      -8.18510868       7.15745061
C        2.83331221      -9.53108378       6.90660803
C        3.85042110      -9.87949896       6.01893607
C        4.59253770      -8.88187250       5.39158918
F        5.55412434      -9.24235923       4.53065246
H        3.53753377      -1.56808061       0.53683783
H        4.96437687      -2.99188454       1.96006281
H        1.64790402      -3.61667022       4.65208022
H        0.22517990      -2.19179886       3.22612057
H        3.74185354      -6.05764417       3.24335263
H        4.92562044      -2.63165141       5.31459790
H        3.10091681      -6.13961533       6.74423358
H        2.25522135     -10.31107997       7.39561311
H        4.07028434     -10.92255444       5.81159712
C        1.51723965      -7.82079417       8.06840243
C        0.63446470      -7.51568076       8.83132458
Br      -0.79290773      -7.02233819      10.06490517
C       -0.00445707       0.01189536      -1.78238275
H       -0.66409135       0.67374010      -2.43557963
H        0.65740317      -0.63156657      -2.45157240
C       -0.90989263      -0.90692880      -0.91072765
C        0.90977584       0.90977584      -0.90977584
C       -0.00465871       1.77757030       0.00794375
H       -0.66225468       2.44313916      -0.64384735
H        0.64322798       2.43503045       0.67728295
C       -1.78241447       0.00034974      -0.00472694
H       -2.45427497      -0.65498947       0.64260836
H       -2.43311707       0.67328779      -0.65473579
C       -0.91132561       0.90220522       0.91563759
C       -0.01476271      -0.02253852       1.78660255
H       -0.67934791      -0.69751639       2.42135241
H        0.63392994       0.61504881       2.47327442
C        0.01484550      -1.77751727      -0.01636693
H        0.67870853      -2.42144646      -0.68295456
H       -0.62264859      -2.45592969       0.64226336
C        1.78714474       0.01002794       0.00389507
H        2.44202412       0.67113390       0.66197326
H        2.45385902      -0.65136977      -0.64189061
C        0.91606151      -0.90478549       0.90901405
