154
Properties=species:S:1:pos:R:3 pbc="F F F"
C        1.79161798       1.79161798      -1.79161798
C        1.46138619       1.97727399      -3.13325286
C        2.26811208       2.78364845      -3.93985302
C        3.40454286       3.40335330      -3.40490246
C        3.72650132       3.21038994      -2.05541178
C        2.91979748       2.40443427      -1.24832098
C        4.25217008       4.24736877      -4.25253566
C        5.29724716       3.71717952      -4.91710946
C        6.19075544       4.59137951      -5.79187976
H        6.11177594       4.21742075      -6.82055862
N        5.69453752       5.96503701      -5.85081061
N        6.18856263       6.92818213      -6.64345638
N        5.42595190       7.98804256      -6.39215943
N        4.43939856       7.69164170      -5.46902786
C        4.61014381       6.42992554      -5.15689850
N        3.93717715       5.58651302      -4.34776702
C        7.62977366       4.55975546      -5.31388254
C        8.00065668       5.00222529      -4.03007926
C        9.33710721       4.94973045      -3.62702091
Br       9.81414795       5.53835504      -1.89528350
C       10.32064491       4.46345038      -4.48690873
C        9.96364816       4.02415662      -5.76105136
C        8.63067952       4.07392140      -6.16139846
F        8.31093345       3.63109056      -7.38511202
H        0.58182675       1.50130121      -3.55932425
H        2.00453218       2.92587634      -4.98591570
H        4.60447345       3.68733544      -1.62484558
H        3.17854189       2.26242239      -0.20213506
H        5.53309426       2.65886098      -4.85089510
H        3.10741506       5.90788827      -3.85656642
H        7.24871747       5.39078352      -3.34526473
H       11.36160553       4.42415010      -4.17615879
H       10.71567978       3.64316822      -6.44558791
C       -1.79161798      -1.79161798      -1.79161798
C       -3.01061222      -2.25883333      -1.30246749
C       -3.81704103      -3.06560116      -2.10897135
C       -3.40412494      -3.40513834      -3.40353534
C       -2.17772778      -2.92957591      -3.88499935
C       -1.37116645      -2.12240467      -3.07898160
C       -4.24967058      -4.25394643      -4.24845750
C       -4.10013974      -5.59278498      -4.23861142
C       -4.96847214      -6.48176514      -5.12377743
H       -5.54811770      -7.13870056      -4.46293706
N       -5.96772896      -5.69661496      -5.84604123
N       -6.95619946      -6.21018414      -6.59381755
N       -7.62887695      -5.14877683      -7.02850011
N       -7.08840301      -3.97386758      -6.53779753
C       -6.07040348      -4.33269367      -5.79387069
N       -5.19708311      -3.63664653      -5.03772756
C       -4.12334943      -7.29299067      -6.08707156
C       -3.29717379      -6.68483539      -7.05095204
C       -2.52951925      -7.46938332      -7.91495600
Br      -1.41790746      -6.63431868      -9.19556035
C       -2.57158820      -8.86065819      -7.83875762
C       -3.38784114      -9.47259116      -6.88842384
C       -4.15075463      -8.68997321      -6.02527155
F       -4.91507882      -9.30181208      -5.11024514
H       -3.34131745      -2.00180294      -0.29933183
H       -4.76801115      -3.42614332      -1.72216975
H       -1.84473780      -3.18250515      -4.88941152
H       -0.42180521      -1.75810194      -3.46319219
H       -3.36244260      -6.07606184      -3.60434590
H       -5.28557349      -2.62716269      -4.95913357
H       -3.25419220      -5.59986854      -7.13070498
H       -1.97696859      -9.47306812      -8.51187771
H       -3.43495668     -10.55499889      -6.81448033
C       -1.79161798       1.79161798       1.79161798
C       -1.79093983       1.60747395       3.17349925
C       -2.59770467       2.41389378       3.98001509
C       -3.40487886       3.40334680       3.40457295
C       -3.39719532       3.58004411       2.01506360
C       -2.59023834       2.77412531       1.20818907
C       -4.25324393       4.24756390       4.25126668
C       -5.52051536       3.88341461       4.52760617
C       -6.41308754       4.76251892       5.39840825
H       -6.68225827       4.17931975       6.28817731
N       -5.68002800       5.91798731       5.91236983
N       -6.15606635       6.79390879       6.81022600
N       -5.15487976       7.64717865       7.00409549
N       -4.04412307       7.29908807       6.25685698
C       -4.38133164       6.21626102       5.59937518
N       -3.70770618       5.41017969       4.75357133
C       -7.65344414       5.20429214       4.64567539
C       -7.57947827       5.98006568       3.47341728
C       -8.74676812       6.36019335       2.80689710
Br      -8.62672997       7.39283245       1.22822406
C       -9.99779101       5.98166890       3.29154411
C      -10.08170381       5.21447321       4.45267912
C       -8.91755187       4.83322689       5.11522062
F       -9.02423166       4.08265923       6.22024515
H       -1.16859828       0.84266903       3.63118490
H       -2.59193301       2.26634694       5.05804427
H       -4.01667167       4.34627070       1.55371210
H       -2.59137001       2.92064380       0.13108552
H       -5.94164826       2.95935763       4.14184446
H       -2.73130685       5.59788529       4.54267762
H       -6.61249127       6.29088691       3.08138755
H      -10.90749874       6.27859817       2.77581751
H      -11.04716257       4.91087736       4.84639597
C        1.79161798      -1.79161798       1.79161798
C        2.92549905      -2.39584270       1.25057128
C        3.73190794      -3.20260252       2.05710308
C        3.40399712      -3.40517732       3.40362418
C        2.26276236      -2.79263361       3.93690707
C        1.45629379      -1.98542432       3.13083462
C        4.24923817      -4.25401233       4.24882401
C        3.99631706      -5.57233153       4.36288755
C        4.86446439      -6.45987504       5.24967528
H        5.33409976      -7.21224039       4.60341517
N        5.97849060      -5.70779576       5.82409878
N        6.98350244      -6.24307967       6.53361903
N        7.77032816      -5.21139878       6.82442695
N        7.28309311      -4.03678224       6.28019277
C        6.18160008      -4.36542412       5.64994363
N        5.30439709      -3.65915763       4.90790247
C        4.04290815      -7.12043114       6.34007237
C        3.34999401      -6.37241635       7.31055086
C        2.59913641      -7.02064459       8.29407758
Br       1.66675980      -5.99876956       9.58225712
C        2.52694442      -8.41225766       8.33180194
C        3.21084457      -9.16214567       7.37586591
C        3.95691424      -8.51537134       6.39371381
F        4.59219297      -9.25808033       5.47686274
H        3.18979548      -2.24580350       0.20685323
H        4.61634781      -3.67045744       1.62951897
H        1.99662033      -2.93830810       4.98172604
H        0.57352583      -1.51416867       3.55540483
H        3.17286866      -6.03963838       3.83034331
H        5.46378819      -2.66976347       4.73831809
H        3.39788872      -5.28476017       7.30211683
H        1.94529621      -8.91874542       9.09787279
H        3.16774195     -10.24715685       7.38953711
C       -0.00445707       0.01189536      -1.78238275
H       -0.66409135       0.67374010      -2.43557963
H        0.65740317      -0.63156657      -2.45157240
C       -0.90989263      -0.90692880      -0.91072765
C        0.90977584       0.90977584      -0.90977584
C       -0.00465871       1.77757030       0.00794375
H       -0.66225468       2.44313916      -0.64384735
H        0.64322798       2.43503045       0.67728295
C       -1.78241447       0.00034974      -0.00472694
H       -2.45427497      -0.65498947       0.64260836
H       -2.43311707       0.67328779      -0.65473579
C       -0.91132561       0.90220522       0.91563759
C       -0.01476271      -0.02253852       1.78660255
H       -0.67934791      -0.69751639       2.42135241
H        0.63392994       0.61504881       2.47327442
C        0.01484550      -1.77751727      -0.01636693
H        0.67870853      -2.42144646      -0.68295456
H       -0.62264859      -2.45592969       0.64226336
C        1.78714474       0.01002794       0.00389507
H        2.44202412       0.67113390       0.66197326
H        2.45385902      -0.65136977      -0.64189061
C        0.91606151      -0.90478549       0.90901405
