190
Properties=species:S:1:pos:R:3 pbc="F F F"
O        6.33113983       4.25275740      -2.97018675
C        5.61055496       4.67663785      -3.87616432
N        4.31750090       4.26898274      -4.11379196
C        3.52753890       3.40728893      -3.32023061
C        4.00419697       2.70880048      -2.21236449
C        3.14427420       1.91110834      -1.45224891
C        1.79666790       1.79666790      -1.79666790
C        1.29180064       2.47783623      -2.91232442
C       -0.14973670       2.38032225      -3.32673435
C        2.17335661       3.27648794      -3.66692657
C        6.18965114       5.69633653      -4.83916497
N        5.43603782       6.26604772      -5.99630552
C        6.37540558       6.80055365      -7.02002848
S        4.09579779       7.28234987      -5.68954423
O        3.62379856       7.76592370      -6.97012171
O        3.17705330       6.56581025      -4.82893101
C        4.73594262       8.66584857      -4.81000447
C        5.04338732       9.83630785      -5.51601319
C        5.51653465      10.93545009      -4.81645965
C        5.65006677      10.82922129      -3.44409605
N        5.33405894       9.71064552      -2.74629345
C        4.85949413       8.64658671      -3.42671875
N        4.62281320       7.53283439      -2.63776175
H        3.82016550       4.77360233      -4.84203359
H        5.04225542       2.76490964      -1.90187247
H        3.54250921       1.38634677      -0.58695496
H       -0.36570264       3.02436861      -4.18583493
H       -0.80739569       2.69983321      -2.51184029
H       -0.39382695       1.35311925      -3.61602810
H        1.78804478       3.81600592      -4.53057682
H        7.05924915       5.17055448      -5.26176644
H        6.60784677       6.51752867      -4.24782492
H        7.10121116       6.03229554      -7.30474628
H        6.92269989       7.66495263      -6.63252735
H        5.84527072       7.08124905      -7.93467287
H        4.91232878       9.88651112      -6.59444297
H        6.02312087      11.65198938      -2.84150635
H        3.71637563       7.09501969      -2.80996925
H        4.73444091       7.79410163      -1.65950276
C        5.86242409      12.15286745      -5.50337701
C        6.15210650      13.17245449      -6.07867030
Br       6.62049846      14.82104050      -7.00887089
O       -6.33849499      -4.23325650      -2.98233250
C       -5.61515768      -4.66656991      -3.88162954
N       -4.31839771      -4.26779817      -4.11407972
C       -3.52803885      -3.40608582      -3.32093377
C       -4.00702733      -2.69841024      -2.21992437
C       -3.14688911      -1.90129718      -1.45944515
C       -1.79666790      -1.79666790      -1.79666790
C       -1.28932523      -2.48723262      -2.90540344
C        0.15513049      -2.40048059      -3.31196981
C       -2.17113343      -3.28514787      -3.66048983
C       -6.19459696      -5.68848923      -4.84206646
N       -5.43762743      -6.26928220      -5.99148143
C       -6.37414930      -6.80429299      -7.01754543
S       -4.10512649      -7.29152289      -5.67104250
O       -3.62854536      -7.78526984      -6.94602877
O       -3.18722291      -6.57531495      -4.80925670
C       -4.75839786      -8.66614735      -4.78725046
C       -5.06856050      -9.83889839      -5.48824947
C       -5.55214217     -10.93119084      -4.78511137
C       -5.69299629     -10.81620123      -3.41418660
N       -5.37452540      -9.69542931      -2.72104320
C       -4.88984133      -8.63811593      -3.40484233
N       -4.65125048      -7.52117725      -2.62098160
H       -3.81980147      -4.77952056      -4.83647939
H       -5.04717505      -2.74669983      -1.91516264
H       -3.54706446      -1.36920914      -0.59953733
H        0.37231246      -3.05075811      -4.16605525
H        0.80618910      -2.71904302      -2.49142389
H        0.40686878      -1.37640990      -3.60577928
H       -1.78397626      -3.83190743      -4.51874383
H       -7.05865742      -5.16015134      -5.27276131
H       -6.62098378      -6.50378921      -4.24842737
H       -7.09380849      -6.03351677      -7.31092772
H       -6.92870197      -7.66323792      -6.62823999
H       -5.84037164      -7.09337406      -7.92744695
H       -4.93155533      -9.89613845      -6.56558909
H       -6.07431740     -11.63327294      -2.80902624
H       -3.74129710      -7.08962775      -2.79043973
H       -4.77005927      -7.77609299      -1.64189305
C       -5.90113224     -12.15056464      -5.46697167
C       -6.19341142     -13.17179019      -6.03802968
Br      -6.66600213     -14.82302555      -6.96138217
O       -2.66533946       4.89442984       5.99431469
C       -3.80658205       4.82310142       5.53367365
N       -4.14433688       4.20468880       4.35124992
C       -3.30645737       3.43628019       3.51232087
C       -1.93126708       3.30048185       3.69361302
C       -1.18052756       2.48305406       2.84404983
C       -1.79666790       1.79666790       1.79666790
C       -3.17571582       1.92342421       1.58282126
C       -3.88272144       1.21002615       0.46457231
C       -3.91601986       2.75217198       2.44857928
C       -4.93301273       5.49879657       6.29334334
N       -6.35316854       5.51488747       5.83033504
C       -7.09528199       6.64215269       6.45855303
S       -7.22715268       4.04584097       5.79469823
O       -8.58555056       4.36561082       5.40868259
O       -6.47703940       3.09671028       4.99804489
C       -7.27504805       3.47718338       7.45956424
C       -8.40743158       3.75016719       8.23810959
C       -8.45670030       3.27311499       9.53862910
C       -7.38539338       2.53319259      10.00479814
N       -6.29443150       2.24217701       9.25438941
C       -6.25446209       2.69447553       7.98386197
N       -5.07645295       2.39963826       7.31731812
H       -5.13821782       4.15016475       4.14741885
H       -1.40477448       3.81125019       4.49301286
H       -0.11098032       2.38822483       3.01660579
H       -4.96287990       1.38876824       0.49285276
H       -3.73357588       0.12820445       0.54249748
H       -3.51598546       1.56369881      -0.50436386
H       -4.98946379       2.85009567       2.29506805
H       -4.60685815       6.54906961       6.33564232
H       -4.90029301       5.14414992       7.32875743
H       -6.56700827       7.58515877       6.28608594
H       -7.18956504       6.49244514       7.53816970
H       -8.08868752       6.75706394       6.01544118
H       -9.23690585       4.32439640       7.83198061
H       -7.36080149       2.13933426      11.01648084
H       -5.22092439       2.02020515       6.38023504
H       -4.52062043       1.77174089       7.89568398
C       -9.59268118       3.54529946      10.38068791
C      -10.54406517       3.77325395      11.08591217
Br     -12.08237261       4.14183709      12.22620015
O        2.98982406      -4.22136500       6.34289493
C        3.99953056      -4.47942328       5.68440329
N        4.17825331      -4.16593417       4.35608814
C        3.32793416      -3.39497395       3.53215032
C        2.06979435      -2.93671461       3.91885298
C        1.30951286      -2.13928768       3.05883090
C        1.79666790      -1.79666790       1.79666790
C        3.05309749      -2.25279492       1.37606887
C        3.61703772      -1.91624024       0.02404194
C        3.80484938      -3.05600309       2.25591866
C        5.12627997      -5.23735149       6.36152119
N        6.38803591      -5.63982341       5.67053174
C        7.03792539      -6.77194347       6.38611886
S        7.47820417      -4.42297932       5.16650839
O        8.64381287      -5.09034346       4.62568764
O        6.75306514      -3.48986924       4.32886018
C        7.98246307      -3.59432297       6.63500962
C        9.18979407      -3.96336319       7.24255110
C        9.60086086      -3.28705613       8.38052740
C        8.80215232      -2.26377634       8.85745546
N        7.64383664      -1.88138160       8.26577967
C        7.25250909      -2.53063814       7.14965236
N        6.02929386      -2.11109557       6.65301990
H        5.09871225      -4.36327313       3.97381604
H        1.64626697      -3.17352328       4.88924728
H        0.33589545      -1.78769313       3.39222235
H        4.62931489      -2.31541690      -0.10023088
H        3.68073207      -0.83123055      -0.10768481
H        2.99405430      -2.34741310      -0.76614699
H        4.78576433      -3.40806049       1.94080270
H        4.63742371      -6.16863533       6.68551104
H        5.38001738      -4.70759392       7.28558905
H        6.32755233      -7.59444806       6.51625260
H        7.38714516      -6.45861268       7.37442203
H        7.87664660      -7.17401046       5.81053558
H        9.79824576      -4.76487836       6.83015874
H        9.06548439      -1.70227279       9.74885941
H        6.03312687      -1.94244611       5.64579160
H        5.73020676      -1.28663152       7.17120703
C       10.82545595      -3.64493622       9.04827638
C       11.85105434      -3.94466081       9.60751615
Br      13.50936019      -4.42929011      10.51175955
C       -0.00445707       0.01189536      -1.78238275
H       -0.66409135       0.67374010      -2.43557963
H        0.65740317      -0.63156657      -2.45157240
C       -0.90989263      -0.90692880      -0.91072765
C        0.90977584       0.90977584      -0.90977584
C       -0.00465871       1.77757030       0.00794375
H       -0.66225468       2.44313916      -0.64384735
H        0.64322798       2.43503045       0.67728295
C       -1.78241447       0.00034974      -0.00472694
H       -2.45427497      -0.65498947       0.64260836
H       -2.43311707       0.67328779      -0.65473579
C       -0.91132561       0.90220522       0.91563759
C       -0.01476271      -0.02253852       1.78660255
H       -0.67934791      -0.69751639       2.42135241
H        0.63392994       0.61504881       2.47327442
C        0.01484550      -1.77751727      -0.01636693
H        0.67870853      -2.42144646      -0.68295456
H       -0.62264859      -2.45592969       0.64226336
C        1.78714474       0.01002794       0.00389507
H        2.44202412       0.67113390       0.66197326
H        2.45385902      -0.65136977      -0.64189061
C        0.91606151      -0.90478549       0.90901405
