182
Properties=species:S:1:pos:R:3 pbc="F F F"
O        6.33113983       4.25275740      -2.97018675
C        5.61055496       4.67663785      -3.87616432
N        4.31750090       4.26898274      -4.11379196
C        3.52753890       3.40728893      -3.32023061
C        4.00419697       2.70880048      -2.21236449
C        3.14427420       1.91110834      -1.45224891
C        1.79666790       1.79666790      -1.79666790
C        1.29180064       2.47783623      -2.91232442
C       -0.14973670       2.38032225      -3.32673435
C        2.17335661       3.27648794      -3.66692657
C        6.18965114       5.69633653      -4.83916497
N        5.43603782       6.26604772      -5.99630552
C        6.37540558       6.80055365      -7.02002848
S        4.09579779       7.28234987      -5.68954423
O        3.62379856       7.76592370      -6.97012171
O        3.17705330       6.56581025      -4.82893101
C        4.73594262       8.66584857      -4.81000447
C        5.04338732       9.83630785      -5.51601319
C        5.51653465      10.93545009      -4.81645965
Br       5.96886003      12.52748704      -5.71475292
C        5.65006677      10.82922129      -3.44409605
N        5.33405894       9.71064552      -2.74629345
C        4.85949413       8.64658671      -3.42671875
N        4.62281320       7.53283439      -2.63776175
H        3.82016550       4.77360233      -4.84203359
H        5.04225542       2.76490964      -1.90187247
H        3.54250921       1.38634677      -0.58695496
H       -0.36570264       3.02436861      -4.18583493
H       -0.80739569       2.69983321      -2.51184029
H       -0.39382695       1.35311925      -3.61602810
H        1.78804478       3.81600592      -4.53057682
H        7.05924915       5.17055448      -5.26176644
H        6.60784677       6.51752867      -4.24782492
H        7.10121116       6.03229554      -7.30474628
H        6.92269989       7.66495263      -6.63252735
H        5.84527072       7.08124905      -7.93467287
H        4.91232878       9.88651112      -6.59444297
H        6.02312087      11.65198938      -2.84150635
H        3.71637563       7.09501969      -2.80996925
H        4.73444091       7.79410163      -1.65950276
O       -2.91592893      -6.29464747      -4.34350759
C       -3.85194614      -5.58804276      -4.72336822
N       -4.11261615      -4.31323245      -4.27442701
C       -3.31710071      -3.52507696      -3.41288077
C       -2.17832755      -3.98971627      -2.75731813
C       -1.41983714      -3.13086362      -1.95693069
C       -1.79666790      -1.79666790      -1.79666790
C       -2.94350240      -1.30451226      -2.43394663
C       -3.39322924       0.12208665      -2.28617731
C       -3.69593512      -2.18480656      -3.23602945
C       -4.82668725      -6.16591170      -5.73255369
N       -6.01854037      -5.42928144      -6.25056925
C       -7.03115839      -6.38170056      -6.78312876
S       -5.77531156      -4.05465908      -7.23772124
O       -7.08068476      -3.60509310      -7.67406610
O       -4.92017195      -3.13213114      -6.51949148
C       -4.91715049      -4.63361172      -8.66103345
C       -5.64641156      -4.92901272      -9.82028408
C       -4.96478389      -5.35354909     -10.95011140
Br      -5.89384288      -5.78777669     -12.52948043
C       -3.58697164      -5.45236989     -10.88404259
N       -2.86755339      -5.14725814      -9.77618638
C       -3.53106133      -4.71985196      -8.68188630
N       -2.71857995      -4.49139504      -7.58343434
H       -4.86730069      -3.82272325      -4.74577748
H       -1.84202746      -5.01706284      -2.84994722
H       -0.53028161      -3.51914058      -1.46638874
H       -4.27500993       0.33156298      -2.90105396
H       -2.60510432       0.80998157      -2.60915506
H       -3.66077468       0.33083322      -1.24537895
H       -4.58390751      -1.80900674      -3.74171327
H       -5.21154965      -7.06036822      -5.21965221
H       -4.24707187      -6.54586848      -6.58026001
H       -7.27544095      -7.13514619      -6.02766585
H       -6.65298480      -6.89507548      -7.67211960
H       -7.96687333      -5.86944624      -7.02487308
H       -6.72890911      -4.82613345      -9.83824031
H       -2.99735639      -5.78686914     -11.73239106
H       -2.90278867      -3.60193730      -7.11663861
H       -1.74519281      -4.56931951      -7.87353298
O       -2.73996655       4.69596739       6.11815005
C       -3.85331478       4.72062679       5.58941555
N       -4.15345433       4.19262648       4.35419480
C       -3.31153190       3.42403532       3.51949122
C       -1.95994065       3.19475596       3.77066534
C       -1.20701529       2.38322151       2.91739465
C       -1.79666790       1.79666790       1.79666790
C       -3.15064285       2.01903589       1.51228255
C       -3.82808389       1.41514580       0.31409022
C       -3.89350497       2.84028901       2.38297715
C       -4.98327423       5.41890361       6.32297481
N       -6.36941040       5.54776233       5.78121833
C       -7.08254171       6.68020588       6.43324012
S       -7.32231971       4.13900110       5.60637108
O       -8.63419852       4.56231497       5.16333048
O       -6.58077741       3.19323128       4.79778587
C       -7.50379438       3.47988070       7.22812059
C       -8.66389936       3.77613346       7.95567553
C       -8.81935402       3.22925088       9.21983948
Br     -10.34623788       3.61115242      10.25370971
C       -7.82249974       2.40010779       9.70077659
N       -6.70641440       2.08679187       8.99779165
C       -6.56346705       2.60785448       7.76147806
N       -5.36595394       2.28063670       7.14681868
H       -5.13459967       4.21036677       4.09083499
H       -1.45461156       3.62595700       4.62846896
H       -0.15712195       2.21384270       3.14484628
H       -4.89595001       1.65728575       0.29126514
H       -3.74615918       0.32357584       0.33454279
H       -3.38348835       1.80079472      -0.60896267
H       -4.94826150       3.01189743       2.17446859
H       -4.60067218       6.44326458       6.44763332
H       -5.03390507       5.00420115       7.33509414
H       -6.49161904       7.59769296       6.34894098
H       -7.25067947       6.47491290       7.49458751
H       -8.03896716       6.88046620       5.94175928
H       -9.43290495       4.42202682       7.53835110
H       -7.88203379       1.94818384      10.68639896
H       -5.47470657       1.96498260       6.18167541
H       -4.88317524       1.58802673       7.71684334
O        5.57740680      -2.56178149       5.41489570
C        5.33803913      -3.72850342       5.09681458
N        4.33688099      -4.12429294       4.23910168
C        3.48772387      -3.29865710       3.46867746
C        3.44498107      -1.90935705       3.57102383
C        2.60787030      -1.16160200       2.73815914
C        1.79666790      -1.79666790       1.79666790
C        1.80972127      -3.19295629       1.67928372
C        0.94932095      -3.92225148       0.68574747
C        2.65911255      -3.93013022       2.52752836
C        6.17392636      -4.83064460       5.72058169
N        5.96788259      -6.28448210       5.44602637
C        6.54224703      -7.11043042       6.54331026
S        6.30213984      -6.88503610       3.88051594
O        6.11547959      -8.32022262       3.92414176
O        5.53609473      -6.10716203       2.92853780
C        8.01536188      -6.58693614       3.60949765
C        8.93011353      -7.62201011       3.84358472
C       10.27531790      -7.39497492       3.59815156
Br      11.55339294      -8.74069518       3.91701188
C       10.65199959      -6.15436031       3.11702422
N        9.77451198      -5.15232361       2.86416232
C        8.46378084      -5.37967770       3.08934105
N        7.65336231      -4.27984477       2.86020226
H        4.31942397      -5.11255350       4.00382395
H        4.05626999      -1.36762278       4.28514477
H        2.60375911      -0.07829943       2.83375239
H        1.13842820      -5.00083829       0.70523441
H        1.15894275      -3.57728778      -0.33195272
H       -0.11007774      -3.76977574       0.91562240
H        2.68198722      -5.01495363       2.43768667
H        6.00330630      -4.68961079       6.79865298
H        7.22868283      -4.58422084       5.56029669
H        6.14319189      -6.78564987       7.50941122
H        7.63188528      -7.01679477       6.57149983
H        6.26672675      -8.16303604       6.43142985
H        8.59426681      -8.58947677       4.20953928
H       11.69085384      -5.91253003       2.91323273
H        6.82215823      -4.49281703       2.30638931
H        8.21244114      -3.54403421       2.43156996
C       -0.00445707       0.01189536      -1.78238275
H       -0.66409135       0.67374010      -2.43557963
H        0.65740317      -0.63156657      -2.45157240
C       -0.90989263      -0.90692880      -0.91072765
C        0.90977584       0.90977584      -0.90977584
C       -0.00465871       1.77757030       0.00794375
H       -0.66225468       2.44313916      -0.64384735
H        0.64322798       2.43503045       0.67728295
C       -1.78241447       0.00034974      -0.00472694
H       -2.45427497      -0.65498947       0.64260836
H       -2.43311707       0.67328779      -0.65473579
C       -0.91132561       0.90220522       0.91563759
C       -0.01476271      -0.02253852       1.78660255
H       -0.67934791      -0.69751639       2.42135241
H        0.63392994       0.61504881       2.47327442
C        0.01484550      -1.77751727      -0.01636693
H        0.67870853      -2.42144646      -0.68295456
H       -0.62264859      -2.45592969       0.64226336
C        1.78714474       0.01002794       0.00389507
H        2.44202412       0.67113390       0.66197326
H        2.45385902      -0.65136977      -0.64189061
C        0.91606151      -0.90478549       0.90901405
