145
Properties=species:S:1:pos:R:3 pbc="F F F"
C        0.00000000       0.00000000       0.00000000
C        0.88190820       0.88190820      -0.88190820
C        0.63474101       2.25373533      -0.95392531
C        1.44205964       3.06315561      -1.75538444
C        2.49723570       2.48753304      -2.46979942
C        2.73588185       1.11108607      -2.41309254
C        1.92527487       0.30700149      -1.60978472
S        3.54106149       3.51838169      -3.47616437
O        4.12539224       2.67983402      -4.50509000
O        2.78370905       4.70294806      -3.82443886
C        4.82622704       3.99043653      -2.35123166
C        5.85765005       4.87944648      -3.02681071
C        6.90302360       5.31113022      -2.01979486
O        6.77726521       5.06192365      -0.82595309
N        7.95658959       5.98418605      -2.60411850
C        9.08169347       6.53259260      -1.94725098
C        9.21842998       6.61648903      -0.56058144
C       10.37722428       7.16352983       0.00425632
C       11.40345827       7.62758025      -0.81785582
C       11.28036848       7.56322368      -2.20102818
C       10.12112463       7.02303125      -2.74976870
F       10.00652588       6.95809711      -4.08617405
H       -0.18384156       2.69911731      -0.39333137
H        1.24134614       4.13089618      -1.81538157
H        3.54277158       0.65805406      -2.98576620
H        2.11116708      -0.76324215      -1.55975497
H        5.29382949       3.07239826      -1.97914311
H        4.34881607       4.50719065      -1.51164959
H        5.38368942       5.77739147      -3.43902395
H        6.34498561       4.34296471      -3.84876583
H        7.98247005       6.04239069      -3.61863303
H        8.43984048       6.27422277       0.11463890
H       10.46405165       7.21897538       1.08690233
H       12.06732910       7.91904045      -2.85808432
C       12.59751775       8.17604188      -0.22877873
C       13.59754256       8.63537849       0.26457333
Br      15.21449810       9.37808694       1.06228189
C       -0.88190820      -0.88190820      -0.88190820
C       -2.11340148      -0.40027709      -1.32872308
C       -2.91957197      -1.20216611      -2.13886160
C       -2.47589430      -2.47779018      -2.50088367
C       -1.25071935      -2.96917528      -2.04016582
C       -0.44900962      -2.16253610      -1.23051535
S       -3.49080216      -3.49498275      -3.54982265
O       -3.13013669      -4.87773908      -3.30244049
O       -4.86044870      -3.04685453      -3.40379273
C       -2.93329230      -3.05999474      -5.17460819
C       -3.67438356      -3.84428141      -6.24524228
C       -3.21489634      -3.40072384      -7.61832851
O       -2.46604699      -2.44018322      -7.75891174
N       -3.72817696      -4.18734410      -8.62937307
C       -3.51086195      -4.03311247     -10.01756262
C       -2.85955723      -2.94150568     -10.59443753
C       -2.67581968      -2.87934612     -11.98133200
C       -3.14298670      -3.91078719     -12.79512045
C       -3.80436981      -5.00023288     -12.24001765
C       -3.98596867      -5.04692767     -10.86102824
F       -4.62141584      -6.10249668     -10.32688451
H       -2.45352545       0.59416614      -1.04924782
H       -3.88256354      -0.82644237      -2.47861799
H       -0.91382888      -3.97010944      -2.30265352
H        0.50661968      -2.53992114      -0.87437844
H       -1.85836262      -3.26546959      -5.22153866
H       -3.09095305      -1.98262560      -5.29407765
H       -4.75446251      -3.67462256      -6.17101976
H       -3.48895237      -4.91813757      -6.12962621
H       -4.26386004      -5.01097552      -8.36865821
H       -2.48795307      -2.11389964      -9.99757163
H       -2.16519223      -2.02040244     -12.41053003
H       -4.17560172      -5.81294846     -12.85590369
C       -2.93777114      -3.84563439     -14.21893283
C       -2.76590310      -3.79106892     -15.41137570
Br      -2.48800702      -3.70284117     -17.33945496
C       -0.88190820       0.88190820       0.88190820
C       -0.40617999       2.12023068       1.31599098
C       -1.21174247       2.93065108       2.11820613
C       -2.49266812       2.49310694       2.46879309
C       -2.96468934       1.24552946       2.04984165
C       -2.15456040       0.43978233       1.24771835
S       -3.53020683       3.53155373       3.47384700
O       -4.48409092       2.67471581       4.15150952
O       -2.66683991       4.42080080       4.22345525
C       -4.40680773       4.49145216       2.26963534
C       -5.38208944       5.45351010       2.92830770
C       -6.06481094       6.29704180       1.87209595
O       -5.71368035       6.25323336       0.69822824
N       -7.08038928       7.07520946       2.38929540
C       -7.89882780       7.98319957       1.67950968
C       -7.69106699       8.35443720       0.34999625
C       -8.56332382       9.25174811      -0.27857414
C       -9.64722302       9.77960518       0.42206615
C       -9.86354023       9.43084528       1.75023483
C       -8.98582885       8.54297674       2.36511898
F       -9.19947893       8.20438796       3.64693014
H        0.58879568       2.45973867       1.03766413
H       -0.83442937       3.89180390       2.46139062
H       -3.95274609       0.89374080       2.34010496
H       -2.52051468      -0.52907148       0.91623670
H       -4.93824341       3.79363427       1.61349318
H       -3.65920214       5.03062415       1.67783001
H       -4.85767756       6.12316686       3.61926041
H       -6.13875653       4.90111536       3.49684426
H       -7.33020364       6.94702998       3.36626015
H       -6.85491528       7.97294636      -0.22843729
H       -8.38397353       9.52735834      -1.31520717
H      -10.70092159       9.83061360       2.31291870
C      -10.54723299      10.69100928      -0.23590392
C      -11.30099134      11.45431022      -0.78695385
Br     -12.51975485      12.68850328      -1.67795498
C        0.88190820      -0.88190820       0.88190820
C        2.10587916      -0.39407227       1.34245021
C        2.91198352      -1.19599351       2.15262265
C        2.47571005      -2.47799117       2.50086693
C        1.25824651      -2.97541813       2.02639582
C        0.45656049      -2.16871536       1.21678521
S        3.49036461      -3.49545746       3.54978548
O        3.14282536      -4.87901344       3.28847746
O        4.85748256      -3.03524826       3.41836513
C        2.91641845      -3.07802413       5.17345265
C        3.65522643      -3.86496010       6.24372071
C        3.18123707      -3.43614959       7.61656202
O        2.42358331      -2.48278050       7.75877814
N        3.69274357      -4.22675816       8.62539240
C        3.46311871      -4.08544317      10.01297517
C        2.79846539      -3.00374875      10.59328631
C        2.60316714      -2.95422141      11.97910924
C        3.07210805      -3.98841576      12.78837055
C        3.74664790      -5.06804397      12.22992847
C        3.93962002      -5.10218822      10.85211634
F        4.58778565      -6.14831766      10.31469373
H        2.44020945       0.60527159       1.07366926
H        3.86917705      -0.81534014       2.50310671
H        0.92733738      -3.98108997       2.27816450
H       -0.49312709      -2.55083931       0.84996768
H        1.84283677      -3.29244515       5.21008894
H        3.06444489      -2.00042700       5.30278441
H        4.73446316      -3.68609203       6.17954963
H        3.47937229      -4.93929720       6.11804665
H        4.23710201      -5.04396188       8.36242988
H        2.42498982      -2.17435916      10.00007537
H        2.08223345      -2.10286359      12.41102766
H        4.11947956      -5.88270010      12.84227422
C        2.85501434      -3.93636395      14.21096006
C        2.67319837      -3.89277057      15.40237878
Br       2.37921731      -3.82228375      17.32880209
