189
Properties=species:S:1:pos:R:3 pbc="F F F"
C        0.00000000       0.00000000       0.00000000
C        6.28791950       6.02309007      -5.16580579
N        5.80849309       4.94456208      -4.29159412
C        4.84844992       4.11572331      -5.05908782
C        4.28065053       2.95584155      -4.23418181
O        4.69710001       1.81358011      -4.41899060
N        3.29169164       3.34019183      -3.34267965
C        2.50074757       2.50624731      -2.51690527
C        2.73418225       1.12792686      -2.40286200
C        1.93258856       0.31864809      -1.59022145
C        0.88150225       0.88150225      -0.88150225
C        0.62910199       2.24736944      -0.97399137
C        1.42944256       3.07315607      -1.79038538
C        1.09924658       4.54067521      -1.84548828
C        6.93726032       4.11697550      -3.80646462
C        7.93746950       4.85267281      -2.93142405
C        9.27683457       4.92784438      -3.36599491
C       10.25325765       5.54181668      -2.58144937
O       11.52888732       5.55559685      -3.08437189
C       12.38191523       6.43789483      -2.34477251
C       12.16270826       6.27905581      -0.84931608
O       10.82680152       6.65600536      -0.49586836
C        9.91241675       6.07950772      -1.34035235
C        8.59170645       6.03906530      -0.90221072
C        7.61003719       5.41808908      -1.68493867
H        6.95845175       6.70618150      -4.63474211
H        5.44634460       6.63409342      -5.51212752
H        6.81433167       5.63700911      -6.04694778
H        5.31068198       3.69473323      -5.96170932
H        4.00142835       4.73155337      -5.38814619
H        3.13333968       4.33909236      -3.27878251
H        3.55015488       0.64093525      -2.92582987
H        2.14605098      -0.74483216      -1.52323760
H       -0.19853838       2.67587956      -0.41263538
H        1.87224169       5.11930080      -1.33077136
H        0.13947971       4.75491721      -1.36230947
H        1.01204931       4.87935936      -2.88280785
H        7.45455907       3.66060415      -4.66192735
H        6.57578049       3.27930210      -3.19792992
H        9.57101069       4.49696155      -4.32087455
H       13.41691224       6.19123239      -2.60224362
H       12.18378073       7.46601874      -2.67127669
H       12.84888412       6.92631828      -0.29409143
H       12.33224634       5.24458291      -0.52480712
H        8.34105150       6.46805529       0.06422970
C        6.28093799       5.36250867      -1.13357117
C        5.16781741       5.31596006      -0.67180088
Br       3.36799557       5.24069491       0.07484262
C       -5.56762540      -5.41226678      -6.49692318
N       -4.40529334      -4.77172301      -5.86763294
C       -4.31943673      -5.24009877      -4.46372556
C       -3.13548331      -4.62602044      -3.70917015
O       -2.12643906      -5.29858638      -3.50464528
N       -3.35537821      -3.32088820      -3.29829671
C       -2.51255091      -2.51286656      -2.49848268
C       -1.22431320      -2.91948962      -2.12116830
C       -0.41131773      -2.11075038      -1.31938999
C       -0.88150225      -0.88150225      -0.88150225
C       -2.15515978      -0.45182450      -1.24347852
C       -2.98419037      -1.25840173      -2.05039191
C       -4.35023087      -0.73310818      -2.40207101
C       -3.16065799      -5.09869395      -6.60134850
C       -3.10829046      -4.58381058      -8.02946532
C       -2.97494632      -5.52229418      -9.07343337
C       -2.86611257      -5.10908789     -10.40132324
O       -2.72934681      -6.09528575     -11.34422349
C       -2.90398737      -5.58780825     -12.67278694
C       -2.17249119      -4.26764037     -12.85094859
O       -2.72446311      -3.26822255     -11.98598957
C       -2.87355554      -3.74881957     -10.70990172
C       -3.02938638      -2.80545403      -9.69814206
C       -3.13299569      -3.21683529      -8.36323397
H       -5.71824668      -5.05909957      -7.52202911
H       -6.48368788      -5.15718271      -5.95169496
H       -5.47604284      -6.50486628      -6.51737944
H       -4.22634618      -6.33273343      -4.40804492
H       -5.23355601      -4.96655256      -3.92101934
H       -4.22114104      -2.90657260      -3.62350091
H       -0.80480329      -3.86519905      -2.44691766
H        0.58306704      -2.45705219      -1.05047128
H       -2.51146256       0.51463797      -0.89315197
H       -4.38962524      -0.46940536      -3.46328325
H       -4.59753697       0.16309136      -1.82226078
H       -5.12110807      -1.47682285      -2.17628560
H       -3.00071328      -6.18588715      -6.59049013
H       -2.28584215      -4.66580598      -6.10136439
H       -2.94534788      -6.58795884      -8.85554007
H       -2.50764425      -6.33503696     -13.36770704
H       -3.97849827      -5.47885496     -12.86372293
H       -2.27748433      -3.91127737     -13.88053214
H       -1.10177797      -4.36750469     -12.63235371
H       -3.03963160      -1.74974214      -9.95550336
C       -3.22841676      -2.17804371      -7.37055735
C       -3.30833191      -1.30805577      -6.53919067
Br      -3.43754795       0.09864115      -5.19494108
C       -5.59439792       5.38989896       6.49251847
N       -4.43265716       4.73615915       5.87583299
C       -4.30075842       5.23605985       4.48644277
C       -3.11366692       4.61126173       3.74574525
O       -2.08390554       5.26337534       3.58238984
N       -3.35479799       3.32228850       3.29747663
C       -2.51219483       2.51320639       2.49849893
C       -1.20555521       2.89679743       2.16261847
C       -0.39273470       2.08778453       1.36093887
C       -0.88150225       0.88150225       0.88150225
C       -2.17374775       0.47487992       1.20183514
C       -3.00277321       1.28200516       2.00820564
C       -4.38940229       0.78236140       2.31364637
C       -3.19903778       5.01437245       6.64729021
C       -3.19451888       4.46398321       8.06306427
C       -3.06442950       5.37336945       9.13287492
C       -2.99853821       4.92562025      10.45236525
O       -2.86137268       5.88505020      11.42243317
C       -3.08108109       5.35009128      12.73341020
C       -2.38634404       4.00828982      12.89644628
O       -2.94071704       3.04404816      11.99391004
C       -3.04649715       3.55889283      10.72688684
C       -3.19997552       2.64440609       9.68860086
C       -3.26051578       3.09037158       8.36217759
H       -5.77885553       5.01589746       7.50462237
H       -6.50257236       5.17083543       5.91915775
H       -5.47696905       6.47908117       6.54223833
H       -4.17993580       6.32708007       4.46010866
H       -5.20749952       4.99843617       3.91519223
H       -4.23811102       2.92180485       3.59129869
H       -0.77150745       3.82367636       2.52173619
H        0.61608522       2.41574893       1.12479272
H       -2.54451908      -0.47371115       0.81916863
H       -4.46143160       0.49414306       3.36673919
H       -4.64385998      -0.09316198       1.70600839
H       -5.13624992       1.55018141       2.08778519
H       -3.01264275       6.09721523       6.66723259
H       -2.32282477       4.57216017       6.15802757
H       -3.00369501       6.44292907       8.94222271
H       -2.68412736       6.07025943      13.45600145
H       -4.16231096       5.26320267      12.89556253
H       -2.52538899       3.62985608      13.91404877
H       -1.30844418       4.08685748      12.70633472
H       -3.24210540       1.58335999       9.91941171
C       -3.35639965       2.07855845       7.34205972
C       -3.43670240       1.23116495       6.48771100
Br      -3.56654515      -0.13899866       5.10630139
C        6.06934880      -6.25097800       5.15648855
N        5.60999977      -5.27708498       4.15756454
C        5.03945565      -4.11077176       4.87303364
C        4.52343422      -3.02879561       3.91844407
O        5.18305584      -2.00628953       3.74032535
N        3.29463349      -3.32807382       3.35185581
C        2.50357161      -2.50288434       2.51744420
C        2.96254229      -1.26908714       2.03334168
C        2.15977016      -0.46229735       1.21939059
C        0.88150225      -0.88150225       0.88150225
C        0.40169640      -2.10302753       1.34573886
C        1.20101270      -2.92450689       2.16746441
C        0.61871409      -4.23126322       2.63543274
C        6.72638586      -4.85342613       3.28088845
C        7.32719371      -5.96135590       2.43301674
C        8.69170618      -6.27107356       2.60789413
C        9.31493077      -7.24010790       1.82148502
O       10.64696243      -7.46300260       2.05889102
C       11.11211318      -8.64915775       1.40331164
C       10.57500613      -8.73202970      -0.01595568
O        9.14659436      -8.83785620      -0.00577532
C        8.58961238      -7.90788652       0.83477791
C        7.23533894      -7.63638108       0.66126245
C        6.60802803      -6.65977061       1.44526631
H        6.44906342      -7.16378222       4.68652972
H        5.23446823      -6.56406333       5.79403398
H        6.85580938      -5.84101688       5.80146229
H        5.77668575      -3.64806734       5.54237143
H        4.19432295      -4.43045214       5.49635282
H        2.93713255      -4.25292280       3.56115920
H        3.95793718      -0.90124915       2.25773367
H        2.55068140       0.48569447       0.85946950
H       -0.60280655      -2.41976893       1.07301417
H        1.11988551      -5.06611203       2.13631631
H       -0.45169293      -4.29739692       2.41100239
H        0.71979415      -4.33381286       3.72060951
H        7.51148314      -4.37930749       3.88629993
H        6.39688325      -4.08612907       2.57000019
H        9.28344427      -5.74860065       3.35680188
H       12.20615272      -8.61349118       1.39074434
H       10.80485666      -9.51743712       1.99878238
H       10.97067653      -9.61912304      -0.52050574
H       10.85674457      -7.85046205      -0.60557024
H        6.68260599      -8.16971468      -0.10744357
C        5.22149609      -6.39354842       1.16197331
C        4.06027559      -6.17058734       0.92471542
Br       2.18268025      -5.81007813       0.54108949
