162
Properties=species:S:1:pos:R:3 pbc="F F F"
C        1.79220887       1.79220887      -1.79220887
C        1.37332003       3.08380311      -2.11267032
C        2.18395501       3.89906317      -2.90269414
C        3.40663630       3.41745822      -3.37292140
C        3.81588036       2.11348178      -3.06620551
C        3.00960044       1.29904981      -2.26218093
C        5.12377948       1.64110639      -3.59275092
O        6.03880871       2.43262919      -3.78153161
N        5.21243171       0.30116988      -3.88120282
C        6.40683292      -0.26375032      -4.48179402
C        6.06983717      -1.59666315      -5.16204709
O        4.92724574      -2.06125844      -5.08796392
N        7.09666708      -2.24402882      -5.84009156
C        8.42095560      -1.66626088      -6.03051087
C        6.77486572      -3.44401510      -6.61015714
C        6.49926084      -3.08730234      -8.04168847
C        5.32015928      -2.62154573      -8.59732618
C        5.43045878      -2.39765976     -10.00267651
C        6.68834905      -2.70356202     -10.45480228
Br       7.21883630      -2.52448119     -12.24238492
S        7.72067781      -3.26699831      -9.23728216
H        0.42332842       3.46585317      -1.74671095
H        1.86611841       4.90914396      -3.15016406
H        4.03955780       4.05774362      -3.98518197
H        3.33307380       0.30130832      -1.98104587
H        4.39059129      -0.29545459      -3.87588329
H        7.12773125      -0.43118669      -3.67613071
H        6.80901124       0.44066987      -5.21587613
H        8.70898093      -1.04247110      -5.18179102
H        8.41251617      -1.04882694      -6.93325644
H        9.16089899      -2.46575327      -6.13067618
H        5.89392758      -3.94041418      -6.18695543
H        7.60654159      -4.15153583      -6.51608241
H        4.42015247      -2.44905589      -8.01686417
H        4.62743979      -2.03247182     -10.63102133
C       -1.79220887      -1.79220887      -1.79220887
C       -2.60900227      -1.20309285      -2.75769835
C       -3.40232254      -2.00586190      -3.57752788
C       -3.37938020      -3.39298444      -3.42465128
C       -2.57341395      -3.98077678      -2.44137693
C       -1.76652435      -3.17720097      -1.62710585
C       -2.58439910      -5.46197194      -2.31126575
O       -2.79550294      -6.16890742      -3.28855914
N       -2.38767039      -5.96049085      -1.04664318
C       -2.46335324      -7.38456320      -0.77696019
C       -2.72948122      -7.62086090       0.71512101
O       -2.78510438      -6.66477993       1.49593310
N       -2.88931938      -8.93709223       1.13368179
C       -2.93323801     -10.06998331       0.21801572
C       -3.27737121      -9.18463960       2.52100304
C       -4.76844580      -9.31572991       2.63052874
C       -5.71288148      -8.30824598       2.72518773
C       -7.04349330      -8.81533252       2.82335030
C       -7.05307389     -10.18633076       2.79981533
Br      -8.61689819     -11.21328086       2.89343902
S       -5.50736057     -10.86649027       2.68288917
H       -2.62884811      -0.12324257      -2.88380186
H       -4.03586546      -1.55302768      -4.33653328
H       -3.99583858      -4.01736340      -4.06928142
H       -1.10490879      -3.62118332      -0.88933588
H       -2.38553797      -5.35178971      -0.23369231
H       -1.49868402      -7.81963495      -1.05435629
H       -3.26774043      -7.82258203      -1.37523478
H       -2.29275037      -9.90473568      -0.65081480
H       -3.96221671     -10.20909229      -0.12563667
H       -2.58448820     -10.97152844       0.73019474
H       -2.94055291      -8.36091489       3.16099897
H       -2.75917865     -10.08419404       2.87228452
H       -5.45607689      -7.25432709       2.72244323
H       -7.93074020      -8.19948385       2.90423476
C       -1.79220887       1.79220887       1.79220887
C       -2.59205407       1.20488125       2.77285815
C       -3.38519128       2.00793849       3.59258254
C       -3.37903994       3.39347689       3.42449909
C       -2.59019816       3.97917001       2.42619948
C       -1.78342441       3.17551326       1.61189350
C       -2.61875119       5.45865213       2.28023347
O       -2.82699484       6.17389077       3.25208390
N       -2.44113816       5.94543498       1.00823126
C       -2.53526460       7.36557942       0.72403261
C       -2.82004756       7.58269295      -0.76751940
O       -2.87365942       6.61760301      -1.53731121
N       -2.99874969       8.89247585      -1.19849573
C       -3.04514166      10.03475217      -0.29468823
C       -3.40443398       9.12066478      -2.58409099
C       -4.89794587       9.23444767      -2.67874656
C       -5.83229728       8.21585387      -2.75221143
C       -7.16934595       8.70744496      -2.84131539
C       -7.19363332      10.07843507      -2.83247907
Br      -8.76949137      11.08736037      -2.92011171
S       -5.65426257      10.77647703      -2.73977794
H       -2.59875162       0.12632016       2.91082076
H       -4.00552395       1.55660147       4.36330101
H       -3.99528064       4.01816236       4.06904040
H       -1.13469657       3.61853425       0.86219717
H       -2.44113923       5.32795669       0.20192407
H       -1.57246248       7.81404114       0.98617164
H       -3.33787861       7.80139206       1.32628656
H       -2.39354676       9.88592002       0.56883407
H       -4.07180739      10.16648690       0.05865139
H       -2.71180084      10.93436644      -0.82034539
H       -3.06557489       8.29368880      -3.21879486
H       -2.89991171      10.02187370      -2.95069724
H       -5.56399170       7.16486142      -2.74089236
H       -8.05064062       8.08120798      -2.90585931
C        1.79220887      -1.79220887       1.79220887
C        1.20972012      -2.80374909       2.55632426
C        2.01337971      -3.62323834       3.34909426
C        3.39450808      -3.42415342       3.37835442
C        3.97471415      -2.39525978       2.62559372
C        3.17088373      -1.58088802       1.81905941
C        5.44946844      -2.21697558       2.69119276
O        6.18189366      -3.17711216       2.89396369
N        5.91090960      -0.93069247       2.55320234
C        7.32173380      -0.61706964       2.68607318
C        7.49829960       0.87206404       3.00898555
O        6.51491820       1.61868222       3.05771524
N        8.79357627       1.32799240       3.22714594
C        9.95488169       0.44909981       3.27942373
C        8.98093211       2.70870869       3.66878434
C        9.05913601       2.77173645       5.16624741
C        8.01851463       2.80106671       6.07849181
C        8.47795536       2.87055881       7.42807897
C        9.84790493       2.89179394       7.48347832
Br      10.81911544       2.96591455       9.08353914
S       10.58209104       2.84989985       5.95877048
H        0.13471199      -2.96588452       2.53529603
H        1.56602555      -4.41781635       3.94158453
H        4.01983580      -4.06849166       3.99415594
H        3.61104061      -0.80685844       1.19752894
H        5.27532557      -0.13858866       2.55710576
H        7.79746012      -0.84706196       1.72815319
H        7.75315627      -1.22761859       3.48478237
H        9.84040734      -0.40241948       2.60547404
H       10.07169045       0.07542767       4.30068290
H       10.84947281       1.00219750       2.97854659
H        8.14744645       3.33235917       3.32538155
H        9.88457419       3.10678312       3.19329709
H        6.97431009       2.77240867       5.78605933
H        7.83087934       2.90094831       8.29605827
C       -0.00445707       0.01189536      -1.78238275
H       -0.66409135       0.67374010      -2.43557963
H        0.65740317      -0.63156657      -2.45157240
C       -0.90989263      -0.90692880      -0.91072765
C        0.90977584       0.90977584      -0.90977584
C       -0.00465871       1.77757030       0.00794375
H       -0.66225468       2.44313916      -0.64384735
H        0.64322798       2.43503045       0.67728295
C       -1.78241447       0.00034974      -0.00472694
H       -2.45427497      -0.65498947       0.64260836
H       -2.43311707       0.67328779      -0.65473579
C       -0.91132561       0.90220522       0.91563759
C       -0.01476271      -0.02253852       1.78660255
H       -0.67934791      -0.69751639       2.42135241
H        0.63392994       0.61504881       2.47327442
C        0.01484550      -1.77751727      -0.01636693
H        0.67870853      -2.42144646      -0.68295456
H       -0.62264859      -2.45592969       0.64226336
C        1.78714474       0.01002794       0.00389507
H        2.44202412       0.67113390       0.66197326
H        2.45385902      -0.65136977      -0.64189061
C        0.91606151      -0.90478549       0.90901405
