141
Properties=species:S:1:pos:R:3 pbc="F F F"
C        0.00000000       0.00000000       0.00000000
C        0.88230484       0.88230484      -0.88230484
C        0.46341601       2.17389909      -1.20276630
C        1.27405099       2.98915914      -1.99279011
C        2.49673227       2.50755419      -2.46301738
C        2.90597633       1.20357776      -2.15630149
C        2.09969641       0.38914578      -1.35227690
C        4.21387546       0.73120236      -2.68284690
O        5.12890469       1.52272516      -2.87162758
N        4.30252769      -0.60873414      -2.97129879
C        5.49692890      -1.17365434      -3.57189000
C        5.15993314      -2.50656717      -4.25214307
O        4.01734172      -2.97116247      -4.17805989
N        6.18676306      -3.15393285      -4.93018753
C        7.51105158      -2.57616490      -5.12060685
C        5.86496170      -4.35391912      -5.70025311
C        5.58935682      -3.99720636      -7.13178444
C        4.41025526      -3.53144976      -7.68742215
C        4.52055476      -3.30756379      -9.09277248
C        5.77844502      -3.61346605      -9.54489826
Br       6.30893227      -3.43438521     -11.33248090
S        6.81077378      -4.17690233      -8.32737814
H       -0.48657560       2.55594914      -0.83680693
H        0.95621438       3.99923993      -2.24026004
H        3.12965378       3.14783960      -3.07527795
H        2.42316977      -0.60859570      -1.07114185
H        3.48068727      -1.20535861      -2.96597926
H        6.21782723      -1.34109072      -2.76622669
H        5.89910722      -0.46923416      -4.30597210
H        7.79907691      -1.95237512      -4.27188700
H        7.50261215      -1.95873097      -6.02335242
H        8.25099497      -3.37565729      -5.22077215
H        4.98402355      -4.85031820      -5.27705141
H        6.69663757      -5.06143985      -5.60617838
H        3.51024845      -3.35895991      -7.10696014
H        3.71753576      -2.94237584      -9.72111730
C       -0.88230484      -0.88230484      -0.88230484
C       -2.15150386      -0.43647601      -1.25210153
C       -2.95305699      -1.23062243      -2.07232082
C       -2.48424079      -2.46868776      -2.51437530
C       -1.21752670      -2.92275601      -2.12557287
C       -0.40668937      -2.12080021      -1.31362951
C       -0.76131654      -4.25010087      -2.61650731
O       -1.14835255      -4.67855870      -3.69634618
N        0.06663628      -4.95463629      -1.77709233
C        0.50794061      -6.29773937      -2.10536579
C        0.95404228      -7.02751996      -0.83203136
O        0.95949684      -6.43724509       0.25350910
N        1.35323076      -8.35289096      -0.96335754
C        1.25527800      -9.09999291      -2.21077862
C        1.65362592      -9.11323941       0.24831780
C        0.43981648      -9.86866628       0.70491489
C       -0.62228725      -9.40693166       1.46299126
C       -1.59667606     -10.42003745       1.71095006
C       -1.23289569     -11.60830410       1.13132255
Br      -2.26696725     -13.16728977       1.22722906
S        0.25123019     -11.53310294       0.32062316
H       -2.52110004       0.52849681      -0.91357724
H       -3.94051202      -0.88556851      -2.36963382
H       -3.11003886      -3.08418194      -3.15855053
H        0.59398317      -2.44074771      -1.03895138
H        0.23215617      -4.65138674      -0.82207735
H        1.35334674      -6.20308403      -2.79322591
H       -0.31399247      -6.84127808      -2.58057462
H        1.40955659      -8.45205242      -3.07609296
H        0.25937487      -9.54682740      -2.27978107
H        2.01914121      -9.88279590      -2.23245513
H        1.97911359      -8.43789662       1.04802627
H        2.49818051      -9.78007243       0.04051583
H       -0.69380138      -8.38545761       1.82101031
H       -2.50569994     -10.27121783       2.28064055
C       -0.88230484       0.88230484       0.88230484
C       -2.10262833       0.39080345       1.34664962
C       -2.90276311       1.18602840       2.16720873
C       -2.48174761       2.47043984       2.51511639
C       -1.26538514       2.96894735       2.03152310
C       -0.45510948       2.16690199       1.21910762
C       -0.85937144       4.34445754       2.42409573
O       -1.21166095       4.81198415       3.49961233
N       -0.11873121       5.04368885       1.50267228
C        0.26282223       6.42490902       1.73307776
C        0.59811284       7.10431747       0.39930440
O        0.57882952       6.45471451      -0.65164584
N        0.92813777       8.45446262       0.43669288
C        0.85499799       9.26462247       1.64586906
C        1.11973615       9.16003382      -0.82900199
C       -0.15756765       9.82235171      -1.25598446
C       -1.23090695       9.26227166      -1.92695096
C       -2.27292574      10.20610676      -2.17326905
C       -1.94644455      11.44303066      -1.67959798
Br      -3.07070709      12.93649431      -1.80017344
S       -0.41917137      11.49337661      -0.95129840
H       -2.43463257      -0.61017617       1.08172406
H       -3.85178026       0.80597853       2.53795556
H       -3.10597891       3.08700499       3.15978742
H        0.50971717       2.52390987       0.87152322
H        0.01231419       4.69619284       0.55742926
H        1.14784035       6.41471588       2.37608766
H       -0.56192320       6.94967792       2.22424404
H        1.09178992       8.67586413       2.53451458
H       -0.15946470       9.66068655       1.74708235
H        1.57341480      10.08716783       1.58235679
H        1.43962863       8.45892533      -1.60853994
H        1.93512449       9.88181128      -0.70531069
H       -1.26358189       8.21981768      -2.22515088
H       -3.20126766       9.97684410      -2.68183454
C        0.88230484      -0.88230484       0.88230484
C        0.56343592      -2.23059615       1.04604933
C        1.37632933      -3.04382809       1.83584283
C        2.50074068      -2.50420882       2.46235435
C        2.80764418      -1.14581542       2.31239598
C        2.00037945      -0.33167079       1.50906886
C        4.01248304      -0.61328764       3.00215403
O        4.97945056      -1.33579932       3.20800755
N        3.94573923       0.69514942       3.41450252
C        5.02261228       1.30230722       4.17485949
C        4.50009154       2.52855573       4.93397323
O        3.32896595       2.89586316       4.79113636
N        5.39606282       3.19524758       5.76220250
C        6.74802107       2.72048716       6.02795962
C        4.89353451       4.28237774       6.60013893
C        4.52883824       3.76637202       7.96146869
C        3.35590738       3.14732260       8.35764287
C        3.36330061       2.79946307       9.74192591
C        4.54116289       3.16972505      10.33843940
Br       4.92721892       2.86635411      12.14616315
S        5.61734749       3.93657154       9.28047364
H       -0.30939142      -2.65759624       0.55797565
H        1.13690550      -4.09708756       1.96172129
H        3.13618923      -3.14243787       3.07414423
H        2.24954224       0.71309854       1.34927223
H        3.07383633       1.21492359       3.38239517
H        5.79202500       1.60942440       3.46036260
H        5.42476860       0.56845121       4.87952777
H        7.16838692       2.20924237       5.15944423
H        6.71985108       2.02049782       6.86788034
H        7.39569233       3.56853345       6.26895094
H        4.00945072       4.73790491       6.13921095
H        5.65810495       5.06604480       6.64931595
H        2.53127874       2.95317958       7.68014952
H        2.54713916       2.30617350      10.25531156
