173
Properties=species:S:1:pos:R:3 pbc="F F F"
C        0.00000000       0.00000000       0.00000000
C        6.35482366       7.30779255      -5.29046832
N        4.95130834       6.98945821      -5.57421677
C        4.32788742       6.24934558      -4.45766386
C        4.91357523       4.85209830      -4.24775579
C        4.25438527       4.21076788      -3.04543936
O        4.58490683       4.54497787      -1.91083827
N        3.27400465       3.29716579      -3.37339276
C        2.50455154       2.51321321      -2.48465794
C        2.66760147       2.50287167      -1.09835186
C        1.85738389       1.68804513      -0.29726516
C        0.88137302       0.88137302      -0.88137302
C        0.70696616       0.87447775      -2.26045512
C        1.52017338       1.68682388      -3.04546547
F        1.35072711       1.67692291      -4.37750219
C        4.17494973       8.22516409      -5.84248995
C        4.54029863       8.83261919      -7.20764512
O        4.08123818       8.37240240      -8.24979957
N        5.40057823       9.91484968      -7.10386889
C        5.95158444      10.69635964      -8.14703829
C        5.74068566      10.41952927      -9.50098531
C        6.29322583      11.23746435     -10.49308569
C        7.06438092      12.34332253     -10.14601922
C        7.29793004      12.62753163      -8.80290758
C        6.75015385      11.80640110      -7.81189699
Br       7.11730368      12.24857817      -5.99656457
H        6.81731629       7.85082394      -6.11982707
H        6.95511791       6.40039640      -5.17769655
H        6.46193967       7.91005163      -4.38109557
H        3.25813014       6.11898438      -4.67181539
H        4.38539640       6.83365038      -3.52967830
H        5.98715364       4.87572250      -4.03585375
H        4.77724096       4.23355475      -5.14288881
H        3.05615211       3.16562786      -4.35718900
H        3.41961718       3.11111338      -0.60470470
H        2.00139270       1.69401088       0.78097073
H       -0.04507600       0.25359108      -2.73485871
H        4.29871522       8.96210399      -5.03914677
H        3.10142876       8.00190782      -5.90121215
H        5.67478690      10.20179967      -6.17056154
H        5.15318905       9.56576928      -9.82508787
H        6.11444120      11.00435648     -11.54055334
H        7.48331191      12.97944920     -10.92131553
H        7.90431116      13.49041284      -8.53885238
C       -5.34794314      -6.24299998      -7.36214142
N       -5.68823846      -4.87706428      -6.94968059
C       -4.56656197      -4.23187236      -6.23646253
C       -4.24630315      -4.87901021      -4.88811597
C       -3.04667020      -4.18796502      -4.27595729
O       -1.91677735      -4.43494885      -4.68899677
N       -3.37440505      -3.27841171      -3.29174643
C       -2.48521171      -2.50295385      -2.51425712
C       -1.09379983      -2.58720366      -2.58782151
C       -0.29242293      -1.77775348      -1.77251778
C       -0.88137302      -0.88137302      -0.88137302
C       -2.26521377      -0.78631778      -0.79036747
C       -3.05026172      -1.59796744      -1.60423358
F       -4.38676362      -1.50534327      -1.51304532
C       -6.06775470      -4.05185380      -8.12299526
C       -7.44361163      -4.46104563      -8.67590568
O       -8.48109104      -4.08743966      -8.13490945
N       -7.35542043      -5.25454415      -9.80933223
C       -8.41019025      -5.82114183     -10.56365030
C       -9.75558231      -5.70280265     -10.20281528
C      -10.76142930      -6.26606457     -10.99628200
C      -10.43683479      -6.95560191     -12.16128598
C       -9.10144570      -7.09674115     -12.53018241
C       -8.09624702      -6.53846254     -11.73374239
Br      -6.29188329      -6.77743085     -12.29313228
H       -6.18075670      -6.72202679      -7.88518382
H       -5.15160013      -6.88386499      -6.49774574
H       -4.46985614      -6.26565146      -8.01757927
H       -4.83020627      -3.18459597      -6.03412767
H       -3.67156749      -4.20497654      -6.87218106
H       -3.97862439      -5.93596766      -4.98413784
H       -5.11084013      -4.82729649      -4.21554791
H       -4.35942157      -3.12426674      -3.09528066
H       -0.59579913      -3.27610018      -3.26353595
H        0.78991242      -1.85966678      -1.84467849
H       -2.74331215      -0.09698072      -0.10308093
H       -5.30213673      -4.08988743      -8.90794183
H       -6.17136537      -2.99698298      -7.83620039
H       -6.42654532      -5.45938114     -10.16122164
H      -10.06174032      -5.18148781      -9.30081807
H      -11.80204191      -6.15995497     -10.69735415
H      -11.22339147      -7.38311603     -12.77756914
H       -8.85465331      -7.63980731     -13.43911577
C       -6.53617169       5.21717742       7.19973544
N       -6.88256477       4.79370903       5.83870952
C       -5.90504430       3.82026370       5.30958886
C       -4.51088328       4.41050176       5.09204429
C       -3.57658341       3.31936963       4.61463947
O       -3.13005874       2.49880793       5.41185630
N       -3.34509097       3.34466357       3.25480866
C       -2.50075959       2.48619043       2.51547266
C       -1.70294005       1.48821501       3.07766995
C       -0.89396581       0.68662582       2.26210256
C       -0.88137302       0.88137302       0.88137302
C       -1.66542089       1.87310038       0.30337776
C       -2.46294200       2.66445019       1.12507054
F       -3.21801327       3.62284771       0.56429122
C       -8.24148884       4.19901826       5.80209666
C       -9.32909207       5.27227792       5.97919295
O       -9.66827847       5.99182485       5.04333684
N       -9.85036761       5.30550851       7.26342069
C      -10.84428393       6.16967798       7.78102046
C      -11.41466581       7.20787427       7.03866015
C      -12.40949812       8.02122447       7.59305328
C      -12.84807528       7.80856773       8.89707966
C      -12.28206814       6.78859280       9.65770831
C      -11.28379688       5.97964757       9.10500750
Br     -10.54801321       4.61006027      10.20437294
H       -7.25717275       5.94206126       7.58873329
H       -5.57355053       5.73605018       7.22361016
H       -6.49078865       4.36943639       7.89286182
H       -6.25605362       3.46021944       4.33265685
H       -5.85139658       2.93720158       5.96012693
H       -4.07608600       4.80820229       6.01444160
H       -4.54517287       5.23667798       4.37183367
H       -3.83466700       4.04255606       2.70174592
H       -1.67899933       1.30816680       4.14826913
H       -0.27898256      -0.08486719       2.72031748
H       -1.66920141       2.04204197      -0.76786959
H       -8.35297360       3.40063829       6.54635410
H       -8.43804154       3.74444648       4.82206072
H       -9.49176919       4.62794701       7.92743190
H      -11.10346954       7.42031142       6.02026524
H      -12.84085870       8.82210496       6.99638737
H      -13.62718101       8.43830120       9.31859443
H      -12.62639869       6.63044405      10.67673365
C        7.41673815      -6.10359986       5.43274654
N        6.27858796      -6.59054429       4.64585108
C        5.72810629      -5.52984259       3.77694798
C        5.08418432      -4.37839496       4.55085005
C        4.61521925      -3.32173796       3.57363529
O        5.42548759      -2.55448964       3.06074573
N        3.25903580      -3.36193077       3.32359663
C        2.51753044      -2.49459617       2.49029606
C        3.05481313      -1.39484844       1.81916344
C        2.23816293      -0.58883614       1.01569512
C        0.88137302      -0.88137302       0.88137302
C        0.32697379      -1.96948651       1.54543872
C        1.14871421      -2.76103092       2.34271760
F        0.61022595      -3.81048398       2.98444227
C        6.67263217      -7.75502094       3.81495066
C        6.89424212      -9.01011200       4.67620882
O        5.94558577      -9.67737197       5.08048240
N        8.23499675      -9.27424618       4.91005389
C        8.79881954     -10.32722952       5.66893331
C        8.02898174     -11.25318450       6.37903401
C        8.63765699     -12.28826876       7.09785013
C       10.02412131     -12.41235825       7.11724311
C       10.80899124     -11.49140522       6.42797279
C       10.20030086     -10.45375128       5.71439981
Br      11.33429252      -9.22560670       4.80254720
H        7.82025740      -6.88780139       6.07990851
H        7.11732811      -5.30190451       6.11397824
H        8.22648855      -5.73224988       4.79434845
H        4.94558535      -5.96393737       3.13940720
H        6.50192155      -5.15034868       3.09645486
H        5.78804035      -3.88338828       5.22730126
H        4.25004891      -4.73920613       5.16442947
H        2.71477835      -4.09579151       3.76839911
H        4.10442710      -1.12907888       1.90192929
H        2.67644840       0.26406557       0.50205002
H       -0.72588330      -2.21354942       1.45570768
H        7.55854187      -7.53526853       3.20615558
H        5.86881073      -8.02025806       3.11547995
H        8.91188324      -8.64927819       4.48598668
H        6.94482156     -11.19698072       6.40224393
H        8.01887866     -12.99882345       7.64164891
H       10.49008797     -13.22367082       7.67031784
H       11.89130571     -11.59178277       6.45048790
