181
Properties=species:S:1:pos:R:3 pbc="F F F"
C        0.00000000       0.00000000       0.00000000
C        6.35482366       7.30779255      -5.29046832
N        4.95130834       6.98945821      -5.57421677
C        4.32788742       6.24934558      -4.45766386
C        4.91357523       4.85209830      -4.24775579
C        4.25438527       4.21076788      -3.04543936
O        4.58490683       4.54497787      -1.91083827
N        3.27400465       3.29716579      -3.37339276
C        2.50455154       2.51321321      -2.48465794
C        2.66760147       2.50287167      -1.09835186
C        1.85738389       1.68804513      -0.29726516
C        0.88137302       0.88137302      -0.88137302
C        0.70696616       0.87447775      -2.26045512
C        1.52017338       1.68682388      -3.04546547
F        1.35072711       1.67692291      -4.37750219
C        4.17494973       8.22516409      -5.84248995
C        4.54029863       8.83261919      -7.20764512
O        4.08123818       8.37240240      -8.24979957
N        5.40057823       9.91484968      -7.10386889
C        5.95158444      10.69635964      -8.14703829
C        5.74068566      10.41952927      -9.50098531
C        6.29322583      11.23746435     -10.49308569
C        7.06438092      12.34332253     -10.14601922
C        7.29793004      12.62753163      -8.80290758
C        6.75015385      11.80640110      -7.81189699
H        6.81731629       7.85082394      -6.11982707
H        6.95511791       6.40039640      -5.17769655
H        6.46193967       7.91005163      -4.38109557
H        3.25813014       6.11898438      -4.67181539
H        4.38539640       6.83365038      -3.52967830
H        5.98715364       4.87572250      -4.03585375
H        4.77724096       4.23355475      -5.14288881
H        3.05615211       3.16562786      -4.35718900
H        3.41961718       3.11111338      -0.60470470
H        2.00139270       1.69401088       0.78097073
H       -0.04507600       0.25359108      -2.73485871
H        4.29871522       8.96210399      -5.03914677
H        3.10142876       8.00190782      -5.90121215
H        5.67478690      10.20179967      -6.17056154
H        5.15318905       9.56576928      -9.82508787
H        6.11444120      11.00435648     -11.54055334
H        7.48331191      12.97944920     -10.92131553
H        7.90431116      13.49041284      -8.53885238
C        7.02780969      12.14079604      -6.43905787
C        7.26034646      12.42085181      -5.28930510
Br       7.63633874      12.87367829      -3.43025213
C       -5.61483011      -5.86419303      -7.47406140
N       -6.09069222      -4.69084059      -6.73345052
C       -4.97253668      -3.95786057      -6.10449960
C       -4.27173380      -4.74538213      -4.99631339
C       -3.10748104      -3.93464615      -4.46846532
O       -2.06345448      -3.86574653      -5.11152196
N       -3.37361850      -3.29616110      -3.27478360
C       -2.48823088      -2.49731151      -2.51688029
C       -1.14946757      -2.27537688      -2.84398055
C       -0.34656861      -1.46861598      -2.02750960
C       -0.88137302      -0.88137302      -0.88137302
C       -2.21105984      -1.09431564      -0.53652356
C       -2.99755972      -1.90003246      -1.35487055
F       -4.28121303      -2.10546595      -1.01847323
C       -6.84256106      -3.77426311      -7.62577960
C       -8.21246694      -4.36057480      -8.00752120
O       -9.16252928      -4.31022167      -7.23068920
N       -8.22801900      -4.91172463      -9.27955318
C       -9.30381721      -5.54801733      -9.94314784
C      -10.54415742      -5.77680364      -9.34023918
C      -11.58159600      -6.39295724     -10.04922264
C      -11.39396141      -6.78925040     -11.37051088
C      -10.16102365      -6.58312129     -11.98422430
C       -9.12273382      -5.97241104     -11.27330709
H       -6.44367400      -6.40951583      -7.93477747
H       -5.13542666      -6.58852213      -6.80926208
H       -4.90232362      -5.59028213      -8.26048112
H       -5.36379477      -3.03927169      -5.64586346
H       -4.24813490      -3.63609857      -6.86449161
H       -3.85273969      -5.69068711      -5.35530309
H       -4.97260396      -4.99142184      -4.18965872
H       -4.30743660      -3.38705511      -2.88447726
H       -0.69285533      -2.71879155      -3.72378838
H        0.69450472      -1.30918661      -2.29975097
H       -2.64617001      -0.64830766       0.35110387
H       -6.26273484      -3.51642191      -8.52080923
H       -7.06341034      -2.82944659      -7.11169181
H       -7.37200047      -4.85469419      -9.82045345
H      -10.74008173      -5.49351182      -8.31045267
H      -12.53931542      -6.55928147      -9.56075414
H      -12.20656761      -7.25932621     -11.91818282
H      -10.01997372      -6.89855718     -13.01504549
C       -7.86623653      -5.78901681     -11.95241026
C       -6.81392005      -5.63542414     -12.52115917
Br      -5.11241331      -5.38707779     -13.44077806
C       -6.99868585       5.15828444       6.79611425
N       -7.03962176       5.14548935       5.32987221
C       -6.18440957       4.07652282       4.77396447
C       -4.69185366       4.29327488       5.02830079
C       -3.91638228       3.11483084       4.47937940
O       -3.89097806       2.05330074       5.09644418
N       -3.32038149       3.36387166       3.26031004
C       -2.50789661       2.48397120       2.51055487
C       -2.12619500       1.20950175       2.93312826
C       -1.31384061       0.40885373       2.11999985
C       -0.88137302       0.88137302       0.88137302
C       -1.24714786       2.14955668       0.44519449
C       -2.05262002       2.93615502       1.26368769
F       -2.40303211       4.16146565       0.84065445
C       -8.43026345       4.96888082       4.84345949
C       -9.27080059       6.23648061       5.07328174
O       -9.17892475       7.20325264       4.32126277
N      -10.10534747       6.13798727       6.17596207
C      -10.99598724       7.11143044       6.68756469
C      -11.10637032       8.39941880       6.15541112
C      -12.01877321       9.31763994       6.68736272
C      -12.83344867       8.96163881       7.75863520
C      -12.72831498       7.68805821       8.31199606
C      -11.81221615       6.77266367       7.78357212
H       -7.62766168       5.95346446       7.20684117
H       -5.99229210       5.37536315       7.16555561
H       -7.32663913       4.20357415       7.22287359
H       -6.32170871       4.04286760       3.68435361
H       -6.50041801       3.09546774       5.15283934
H       -4.45300015       4.35081302       6.09491672
H       -4.35063907       5.23046950       4.57257595
H       -3.47928859       4.27031976       2.82936063
H       -2.43608792       0.80662169       3.89272565
H       -1.02691395      -0.58091180       2.46843070
H       -0.92053111       2.53662111      -0.51377843
H       -8.90887998       4.09268729       5.29839871
H       -8.44194949       4.80481176       3.75778749
H      -10.09542416       5.26301175       6.68871219
H      -10.48965688       8.72951953       5.32486979
H      -12.08922932      10.31393887       6.25618284
H      -13.54606104       9.67664280       8.16137280
H      -13.36473956       7.41783514       9.15100169
C      -11.73884890       5.47188903       8.39692567
C      -11.67740383       4.38249027       8.91060927
Br     -11.57805235       2.62102460       9.74119220
C        7.35428846      -6.26041696       5.33837912
N        6.12276193      -6.71107503       4.68114636
C        5.58471462      -5.67737449       3.77280775
C        5.09385283      -4.42270944       4.49686706
C        4.62773471      -3.40776305       3.47509475
O        5.44897985      -2.74939351       2.84234960
N        3.25655621      -3.35645960       3.33154739
C        2.51704130      -2.49677885       2.48860252
C        3.07907060      -1.49766950       1.69208490
C        2.26269185      -0.69060358       0.88939875
C        0.88137302      -0.88137302       0.88137302
C        0.30263118      -1.86806095       1.67120690
C        1.12465193      -2.66162454       2.46618626
F        0.56281076      -3.61285455       3.22948690
C        6.35967498      -7.96269598       3.92023281
C        6.55566580      -9.16349455       4.86140259
O        5.59556786      -9.71940812       5.38846418
N        7.88737476      -9.51722544       5.01469661
C        8.43033627     -10.55258772       5.81205839
C        7.65336862     -11.35718299       6.65064863
C        8.23900080     -12.38139810       7.40337698
C        9.60924741     -12.61573081       7.32874446
C       10.40246965     -11.81576405       6.51013555
C        9.81744042     -10.78860057       5.76241097
H        7.74902212      -7.02401781       6.01492737
H        7.17208552      -5.38825668       5.97286866
H        8.13515011      -6.00489282       4.61304394
H        4.72271836      -6.09315144       3.23306011
H        6.32705742      -5.41399827       3.00766940
H        5.88538947      -3.93709488       5.07624554
H        4.28753266      -4.66764255       5.19850931
H        2.69667514      -4.00832808       3.87396575
H        4.14890436      -1.31245459       1.67407631
H        2.72059258       0.08301023       0.27685050
H       -0.76936300      -2.03196132       1.68077548
H        7.20726257      -7.86179901       3.23090440
H        5.48414814      -8.21356516       3.30683544
H        8.57258910      -8.98278595       4.49177305
H        6.58194081     -11.21164579       6.75045960
H        7.61483230     -12.99663495       8.04788378
H       10.05638176     -13.41839758       7.90929729
H       11.47245921     -12.00162602       6.45949115
C       10.68348659      -9.98677546       4.93740156
C       11.40880026      -9.31524693       4.24645618
Br      12.58157112      -8.22944209       3.12925595
