166
Properties=species:S:1:pos:R:3 pbc="F F F"
C        1.79209447       1.79209447      -1.79209447
C        2.48617162       2.85859562      -1.22462887
C        3.29142602       3.66229961      -2.02915352
C        3.39931803       3.39604146      -3.39693809
C        2.70205256       2.32338951      -3.97662086
C        1.89423182       1.52112028      -3.15735091
C        2.80905041       2.04209226      -5.40446618
N        3.58904160       2.73669431      -6.24941916
O        3.37154004       2.13072687      -7.48288407
C        2.48382994       1.12174222      -7.26581682
N        2.10993431       1.01677436      -6.00978853
C        2.09098880       0.30389192      -8.44098609
N        0.74091925       0.65165987      -8.85509546
C       -0.33842069       0.03476087      -8.27008448
N       -1.57166906       0.26865683      -8.56733516
C       -1.83390926       1.23311915      -9.54990491
C       -3.15976866       1.49227355      -9.90343844
C       -3.46185285       2.45031410     -10.87628489
C       -2.43156667       3.15625297     -11.49764164
C       -1.10351474       2.91275100     -11.15954950
C       -0.81720249       1.94784326     -10.18747977
C        0.57543381       1.64233057      -9.80881684
O        1.50593828       2.24686411     -10.33401359
H        2.40621683       3.07140632      -0.16197030
H        3.83576211       4.49735400      -1.59466069
H        4.03334969       4.03759553      -4.00765085
H        1.34464487       0.68524937      -3.58508322
H        2.11742012      -0.75626608      -8.16404768
H        2.79311434       0.44976396      -9.26871280
H       -0.08612390      -0.71143951      -7.49897766
H       -3.96129227       0.94262056      -9.41626769
H       -4.50061835       2.63636017     -11.13887728
H       -0.29660546       3.45893414     -11.64139646
C       -2.74508458       4.14258491     -12.49886881
C       -3.00765583       4.96863790     -13.33739656
Br      -3.43221133       6.30429572     -14.69322502
C       -1.79209447      -1.79209447      -1.79209447
C       -2.23494359      -1.31176676      -3.02268577
C       -3.03856148      -2.11685902      -3.82745865
C       -3.39548384      -3.39826797      -3.39854577
C       -2.95385313      -3.88928439      -2.15892541
C       -2.14558615      -3.07016923      -1.35694765
C       -3.32527106      -5.22541619      -1.70492159
N       -4.06228596      -6.08527541      -2.42759371
O       -4.16741071      -7.20683810      -1.61090217
C       -3.47803163      -6.92098018      -0.47237717
N       -2.93565189      -5.72339023      -0.47745508
C       -3.42944456      -7.97674569       0.57032344
N       -4.30425755      -7.61915951       1.67574248
C       -3.83710689      -6.82181204       2.69249427
N       -4.52913874      -6.45128357       3.71609937
C       -5.86102112      -6.88093545       3.79284177
C       -6.62674782      -6.50900700       4.89981148
C       -7.96051722      -6.91446128       5.01023235
C       -8.53352515      -7.69442397       4.00562117
C       -7.78729863      -8.07579068       2.89430356
C       -6.45269805      -7.66593096       2.80050848
C       -5.61699574      -8.06016231       1.65057684
O       -6.09047499      -8.74387724       0.74753625
H       -1.96153466      -0.31620731      -3.36185146
H       -3.38945231      -1.74946225      -4.78886224
H       -4.02541077      -4.01040445      -4.04278086
H       -1.79251209      -3.42974147      -0.39272389
H       -2.40225193      -8.06525440       0.94230461
H       -3.71816082      -8.94786249       0.15443220
H       -2.78727864      -6.50234439       2.58820878
H       -6.17888697      -5.89916911       5.68046009
H       -8.53963578      -6.61589419       5.88091086
H       -8.22826447      -8.68456431       2.10910365
C       -9.90726144      -8.11043078       4.12132308
C      -11.05776559      -8.45883647       4.21822343
Br     -12.91803349      -9.02217902       4.37490310
C       -1.79209447       1.79209447       1.79209447
C       -3.02595598       2.22885272       1.31458741
C       -3.83072361       3.03247177       2.11968377
C       -3.39853584       3.39548289       3.39827885
C       -2.15561174       2.96001322       3.88643796
C       -1.35367245       2.15168521       3.06734536
C       -1.69819060       3.33780402       5.21961423
N       -2.42042642       4.07530792       6.07942074
O       -1.60013499       4.18733248       7.19768352
C       -0.46018190       3.50098817       6.91021890
N       -0.46758094       2.95432686       5.71458939
C        0.58643005       3.45987128       7.96242558
N        1.68744510       4.33732583       7.59779384
C        2.70301667       3.87095056       6.79849077
N        3.72282459       4.56528943       6.42185809
C        3.79634337       5.89895968       6.84649849
C        4.89924709       6.66728368       6.46790674
C        5.00635121       8.00287431       6.86822304
C        4.00248084       8.57508665       7.64972213
C        2.89519328       7.82628079       8.03769825
C        2.80470205       6.48990236       7.63292023
C        1.65916572       5.65153051       8.03421643
O        0.75687757       6.12423312       8.71946044
H       -3.36767983       1.95069216       0.32122145
H       -4.79467166       3.37863205       1.75447308
H       -4.04283395       4.02529554       4.01046658
H       -0.38692429       1.80332384       3.42472932
H        0.96238379       2.43432898       8.05325653
H        0.17296510       3.75056899       8.93398722
H        2.60134090       2.81962590       6.48312924
H        5.67931595       6.22002770       5.85688423
H        5.87389278       8.58401455       6.56449734
H        2.11059398       8.26662189       8.64769723
C        4.11476091       9.95070006       8.06042999
C        4.20879547      11.10277629       8.40439782
Br       4.36084140      12.96558611       8.96056470
C        1.79209447      -1.79209447       1.79209447
C        2.54110861      -1.21365920       2.81462831
C        3.34471275      -2.01851336       3.61965304
C        3.39563134      -3.39767424       3.39899200
C        2.64426819      -3.98815909       2.36963564
C        1.83901454      -3.16837656       1.56531192
C        2.69530526      -5.42717852       2.13312507
N        3.40939800      -6.28528993       2.88046714
O        3.16669660      -7.52378669       2.29466770
C        2.32284958      -7.29796096       1.25057843
N        1.99547534      -6.03264341       1.10837845
C        1.89781571      -8.47955840       0.45849270
N        2.58428190      -8.48701754      -0.82362486
C        2.06291840      -7.79059125      -1.88708499
N        2.59092453      -7.73615916      -3.06276075
C        3.79301125      -8.42633587      -3.27023231
C        4.37606795      -8.39870193      -4.53882655
C        5.57730523      -9.07136901      -4.78392810
C        6.20145117      -9.77382280      -3.75294603
C        5.63655683      -9.81370931      -2.48148038
C        4.43196268      -9.13933995      -2.25318209
C        3.78607435      -9.16772438      -0.92721751
O        4.30975273      -9.77415512       0.00290814
H        2.50648035      -0.14194993       2.99116316
H        3.93334621      -1.57517534       4.41925524
H        4.03128655      -4.00806282       4.03924671
H        1.24899534      -3.60418227       0.76179984
H        0.81712363      -8.42368755       0.28439054
H        2.09993448      -9.40712517       1.00453145
H        1.12088287      -7.25796565      -1.67743427
H        3.88917052      -7.84870743      -5.34028197
H        6.01450441      -9.03924456      -5.77912987
H        6.11785948     -10.36057257      -1.67470691
C        7.43855685     -10.46542543      -4.00761315
C        8.47463286     -11.04464263      -4.22089686
Br      10.14988013     -11.98118786      -4.56575858
C       -0.00445707       0.01189536      -1.78238275
H       -0.66409135       0.67374010      -2.43557963
H        0.65740317      -0.63156657      -2.45157240
C       -0.90989263      -0.90692880      -0.91072765
C        0.90977584       0.90977584      -0.90977584
C       -0.00465871       1.77757030       0.00794375
H       -0.66225468       2.44313916      -0.64384735
H        0.64322798       2.43503045       0.67728295
C       -1.78241447       0.00034974      -0.00472694
H       -2.45427497      -0.65498947       0.64260836
H       -2.43311707       0.67328779      -0.65473579
C       -0.91132561       0.90220522       0.91563759
C       -0.01476271      -0.02253852       1.78660255
H       -0.67934791      -0.69751639       2.42135241
H        0.63392994       0.61504881       2.47327442
C        0.01484550      -1.77751727      -0.01636693
H        0.67870853      -2.42144646      -0.68295456
H       -0.62264859      -2.45592969       0.64226336
C        1.78714474       0.01002794       0.00389507
H        2.44202412       0.67113390       0.66197326
H        2.45385902      -0.65136977      -0.64189061
C        0.91606151      -0.90478549       0.90901405
