158
Properties=species:S:1:pos:R:3 pbc="F F F"
C        1.79209447       1.79209447      -1.79209447
C        2.48617162       2.85859562      -1.22462887
C        3.29142602       3.66229961      -2.02915352
C        3.39931803       3.39604146      -3.39693809
C        2.70205256       2.32338951      -3.97662086
C        1.89423182       1.52112028      -3.15735091
C        2.80905041       2.04209226      -5.40446618
N        3.58904160       2.73669431      -6.24941916
O        3.37154004       2.13072687      -7.48288407
C        2.48382994       1.12174222      -7.26581682
N        2.10993431       1.01677436      -6.00978853
C        2.09098880       0.30389192      -8.44098609
N        0.74091925       0.65165987      -8.85509546
C       -0.33842069       0.03476087      -8.27008448
N       -1.57166906       0.26865683      -8.56733516
C       -1.83390926       1.23311915      -9.54990491
C       -3.15976866       1.49227355      -9.90343844
C       -3.46185285       2.45031410     -10.87628489
C       -2.43156667       3.15625297     -11.49764164
Br      -2.84306680       4.45083841     -12.81177745
C       -1.10351474       2.91275100     -11.15954950
C       -0.81720249       1.94784326     -10.18747977
C        0.57543381       1.64233057      -9.80881684
O        1.50593828       2.24686411     -10.33401359
H        2.40621683       3.07140632      -0.16197030
H        3.83576211       4.49735400      -1.59466069
H        4.03334969       4.03759553      -4.00765085
H        1.34464487       0.68524937      -3.58508322
H        2.11742012      -0.75626608      -8.16404768
H        2.79311434       0.44976396      -9.26871280
H       -0.08612390      -0.71143951      -7.49897766
H       -3.96129227       0.94262056      -9.41626769
H       -4.50061835       2.63636017     -11.13887728
H       -0.29660546       3.45893414     -11.64139646
C       -1.79209447      -1.79209447      -1.79209447
C       -2.10694542      -1.37788426      -3.08456643
C       -2.91059449      -2.18305766      -3.88922700
C       -3.39547945      -3.39848936      -3.39832877
C       -3.08331551      -3.82254237      -2.09620505
C       -2.27375749      -3.00397451      -1.29497103
C       -3.58865126      -5.08940876      -1.57754883
N       -4.33620224      -5.94747169      -2.29148114
O       -4.58616840      -6.99202048      -1.40696211
C       -3.96026347      -6.66915079      -0.24197472
N       -3.32787405      -5.51758672      -0.29103643
C       -4.06851185      -7.64181647       0.87446151
N       -4.99013178      -7.13787576       1.88033296
C       -4.53688894      -6.29984230       2.87030658
N       -5.26987339      -5.80248605       3.80803650
C       -6.63307271      -6.12817249       3.81213040
C       -7.44521730      -5.61768180       4.82695576
C       -8.81083860      -5.91656414       4.86265660
C       -9.36887360      -6.72877014       3.87531580
Br     -11.21501981      -7.13053107       3.92600182
C       -8.57653845      -7.24758277       2.85533545
C       -7.21094339      -6.94309268       2.83591553
C       -6.32785550      -7.48411037       1.78538465
O       -6.78676231      -8.19989227       0.89983859
H       -1.73367139      -0.43376378      -3.47215827
H       -3.16206717      -1.86691871      -4.89879091
H       -4.02300237      -4.01183248      -4.04376122
H       -2.01971074      -3.31227116      -0.28299555
H       -3.08061509      -7.77479500       1.33020837
H       -4.40090481      -8.61896194       0.50827565
H       -3.46071691      -6.06560503       2.82490770
H       -7.00871526      -4.98299613       5.59411541
H       -9.42612959      -5.51070835       5.66221883
H       -9.00577487      -7.88205737       2.08410710
C       -1.79209447       1.79209447       1.79209447
C       -2.60548669       2.75896317       1.20494626
C       -3.41067355       3.56261938       2.00958622
C       -3.39923541       3.39587570       3.39718646
C       -2.58132045       2.42406403       3.99667845
C       -1.77475049       1.62087847       3.17707406
C       -2.56352081       2.24707379       5.44501424
N       -3.33224790       2.94717574       6.29573143
O       -2.98059961       2.45557830       7.54897307
C       -2.03539278       1.49913080       7.33686540
N       -1.74558622       1.32444754       6.06646343
C       -1.49718114       0.80490535       8.53378033
N       -0.15182471       1.27962329       8.81622658
C        0.92722299       0.69837031       8.19527733
N        2.15683109       1.04243307       8.37872095
C        2.41352609       2.09631154       9.26632935
C        3.73731356       2.47648897       9.49676793
C        4.03342918       3.52608840      10.37208692
C        2.99888394       4.20221467      11.01899722
Br       3.40226766       5.62072357      12.20109316
C        1.67281369       3.83863909      10.80296036
C        1.39296878       2.78340247       9.92768684
C        0.00455881       2.35039092       9.68074911
O       -0.92981932       2.92540097      10.23159570
H       -2.61868030       2.89414836       0.12676478
H       -4.04772172       4.32035932       1.55969575
H       -4.03552191       4.03558456       4.00748960
H       -1.13290267       0.86218051       3.61989427
H       -1.46135380      -0.27264944       8.33649736
H       -2.14727998       0.96359370       9.40071743
H        0.67871031      -0.12139824       7.50152280
H        4.54191496       1.94973942       8.98977151
H        5.07085301       3.80593400      10.53953812
H        0.86274301       4.36114004      11.30532812
C        1.79209447      -1.79209447       1.79209447
C        2.55488628      -1.21140769       2.80310214
C        3.35849199      -2.01624955       3.60813761
C        3.39564292      -3.39764521       3.39900946
C        2.63033959      -3.99041893       2.38130440
C        1.82521885      -3.17062949       1.57685467
C        2.66695724      -5.43180590       2.15684571
N        3.38010061      -6.28962087       2.90543360
O        3.12169728      -7.53095558       2.33249814
C        2.27080392      -7.30680452       1.29378054
N        1.95309454      -6.03996560       1.14343705
C        1.82878265      -8.49143639       0.51564777
N        2.50402073      -8.51586236      -0.77220852
C        1.97946289      -7.82410741      -1.83714564
N        2.49770716      -7.78435861      -3.01774283
C        3.69197529      -8.48668593      -3.22954643
C        4.26423038      -8.47500892      -4.50329596
C        5.45747343      -9.16014391      -4.75287120
C        6.08447276      -9.85909588      -3.72124070
Br       7.69738654     -10.78372024      -4.06155772
C        5.53029830      -9.88315731      -2.44466984
C        4.33356760      -9.19643545      -2.21188251
C        3.69897638      -9.20782532      -0.88022049
O        4.22546658      -9.81075725       0.05059215
H        2.53100004      -0.13796113       2.97063227
H        3.95782188      -1.57117553       4.39877938
H        4.03155511      -4.00799614       4.03904482
H        1.22453417      -3.60819336       0.78224992
H        0.74714212      -8.42769879       0.35036081
H        2.02764852      -9.41599379       1.06794879
H        1.04389160      -7.28155475      -1.62403210
H        3.77514868      -7.92772215      -5.30527485
H        5.88629010      -9.14036319      -5.75203418
H        6.01385862     -10.42721888      -1.63735236
C       -0.00445707       0.01189536      -1.78238275
H       -0.66409135       0.67374010      -2.43557963
H        0.65740317      -0.63156657      -2.45157240
C       -0.90989263      -0.90692880      -0.91072765
C        0.90977584       0.90977584      -0.90977584
C       -0.00465871       1.77757030       0.00794375
H       -0.66225468       2.44313916      -0.64384735
H        0.64322798       2.43503045       0.67728295
C       -1.78241447       0.00034974      -0.00472694
H       -2.45427497      -0.65498947       0.64260836
H       -2.43311707       0.67328779      -0.65473579
C       -0.91132561       0.90220522       0.91563759
C       -0.01476271      -0.02253852       1.78660255
H       -0.67934791      -0.69751639       2.42135241
H        0.63392994       0.61504881       2.47327442
C        0.01484550      -1.77751727      -0.01636693
H        0.67870853      -2.42144646      -0.68295456
H       -0.62264859      -2.45592969       0.64226336
C        1.78714474       0.01002794       0.00389507
H        2.44202412       0.67113390       0.66197326
H        2.45385902      -0.65136977      -0.64189061
C        0.91606151      -0.90478549       0.90901405
