169
Properties=species:S:1:pos:R:3 pbc="F F F"
C        0.00000000       0.00000000       0.00000000
O        1.41763836       7.25642515      -4.35364058
C        0.55038500       6.64851957      -4.98005868
N        0.27324081       5.29447078      -4.82507530
N        1.00104852       4.55097921      -3.94726756
C        0.43728157       3.44930103      -3.56496708
C        1.09914368       2.55620275      -2.60037123
C        0.28978926       1.71807325      -1.82779044
C        0.88200447       0.88200447      -0.88200447
C        2.26778829       0.85456409      -0.72332007
C        3.07246259       1.68317868      -1.50854790
C        2.48757505       2.54512577      -2.43274092
O        3.33115419       3.34840170      -3.14751188
C       -0.42337461       7.37544014      -5.87454784
C       -0.63333162       6.68476354      -7.19639892
O        0.12772840       6.86251970      -8.13949659
N       -1.71701338       5.80064339      -7.16291659
N       -2.07993864       4.89581176      -8.13077913
C       -1.22379299       4.56442495      -9.04894015
C       -1.57184841       3.60569470     -10.12062259
C       -0.66223726       3.45819781     -11.17389224
C       -0.93112445       2.54073317     -12.18904252
C       -2.09023958       1.76566177     -12.15937544
C       -2.99808115       1.91699215     -11.10920904
C       -2.74255336       2.83983730     -10.09722733
O       -3.67651644       2.93593392      -9.10333449
H       -0.47154856       4.84070144      -5.34540637
H       -0.57177277       3.15695396      -3.90840103
H       -0.79091178       1.73707042      -1.93680627
H        2.73064676       0.20138689       0.01222908
H        4.15298280       1.66896611      -1.38963155
H        2.79356247       4.04781239      -3.58303534
H       -0.03310661       8.37860170      -6.08325153
H       -1.36798327       7.50357116      -5.33855729
H       -2.44968869       5.96423823      -6.47765122
H       -0.19180457       4.93888030      -9.08973896
H        0.24594153       4.05556128     -11.20785176
H       -2.29666323       1.04502485     -12.94693185
H       -3.90319968       1.31587997     -11.08079541
H       -3.40535712       3.67827910      -8.52259256
C       -0.00001749       2.39111520     -13.27727701
C        0.77978459       2.26581016     -14.18867338
Br       2.04065861       2.06320250     -15.66232425
O       -5.51395321      -1.01938712      -6.49436376
C       -6.13630922      -0.43331660      -5.60933744
N       -5.74024977      -0.37512597      -4.27741115
N       -4.60536928      -1.01347966      -3.88044635
C       -4.09773940      -0.58548561      -2.76832467
C       -2.85857954      -1.16825351      -2.22888462
C       -2.07819046      -0.37209596      -1.38536652
C       -0.88200447      -0.88200447      -0.88200447
C       -0.47648542      -2.18137640      -1.18781064
C       -1.26775490      -2.97751527      -2.01891900
C       -2.44759441      -2.46528373      -2.55256360
O       -3.15878303      -3.28781583      -3.38046891
C       -7.32744755       0.43434357      -5.93350940
C       -8.48143346       0.22269313      -4.98909052
O       -9.28922684      -0.68236524      -5.15815259
N       -8.44886903       1.11174730      -3.90942487
N       -9.24365087       1.08621685      -2.78921822
C       -9.89893553       0.00456217      -2.49519876
C      -10.77883305      -0.06761058      -1.30802524
C      -11.59448992      -1.19735565      -1.17800722
C      -12.41508035      -1.32571021      -0.05786068
C      -12.42354367      -0.34567612       0.93442216
C      -11.61138814       0.78237529       0.80089281
C      -10.79740061       0.92380986      -0.32092053
O      -10.03177575       2.05472399      -0.38570021
H       -6.27278388       0.14423848      -3.58601386
H       -4.54313803       0.25495302      -2.20539721
H       -2.37977414       0.64401842      -1.14720918
H        0.45485885      -2.58065830      -0.79400511
H       -0.95775571      -3.99043188      -2.26339288
H       -3.82581021      -2.74282268      -3.85577731
H       -7.67792328       0.19325040      -6.94407375
H       -7.00997199       1.48079799      -5.94497117
H       -7.95816259       1.99396665      -4.02800483
H       -9.83600696      -0.92745982      -3.07334792
H      -11.59596358      -1.96934065      -1.94405034
H      -13.05782745      -0.44892681       1.81146079
H      -11.61386624       1.54954005       1.57085049
H       -9.58907867       2.05441239      -1.26084827
C      -13.25997509      -2.48411835       0.07571872
C      -13.96757443      -3.45428517       0.18759146
Br     -15.11170273      -5.02296286       0.36848023
O       -2.50427852       7.70884754       2.81457804
C       -1.37627145       7.53013927       3.27255254
N       -0.74826713       6.29180890       3.35271086
N       -1.39850837       5.17450001       2.92628691
C       -0.63218493       4.16676806       2.65259669
C       -1.19609917       2.89973966       2.15987884
C       -0.36977387       2.07475805       1.39112103
C       -0.88200447       0.88200447       0.88200447
C       -2.19378892       0.49483301       1.15705053
C       -3.01005555       1.31585435       1.93827927
C       -2.51727514       2.52444558       2.42372103
O       -3.37795757       3.29202616       3.15708405
C       -0.48938034       8.69285136       3.64438167
C        0.21206240       8.49714729       4.96274595
O       -0.33268974       8.77235350       6.02470144
N        1.47391405       7.91353173       4.80692893
N        2.30111987       7.44784024       5.79993189
C        1.81539913       7.22224432       6.98272692
C        2.66853485       6.73439581       8.08860792
C        2.10871610       6.70761527       9.37095363
C        2.86329761       6.22309250      10.43885635
C        4.16318514       5.75876402      10.23921875
C        4.72091725       5.78962675       8.95941054
C        3.97781799       6.28311416       7.88921510
O        4.58908504       6.28560636       6.66623065
H        0.19596404       6.19632567       3.71419762
H        0.46837077       4.22767428       2.73427870
H        0.65059991       2.37004570       1.16351911
H       -2.59338740      -0.43604331       0.76246048
H       -4.03394181       1.02206998       2.15556867
H       -2.99099552       4.19264724       3.24076744
H       -1.10472851       9.59653264       3.72748547
H        0.22593363       8.86485152       2.83522728
H        1.94837381       8.02555571       3.91501886
H        0.75604998       7.34752457       7.24534009
H        1.09564435       7.06545166       9.53954726
H        4.74923221       5.37416134      11.07036434
H        5.73353549       5.42928744       8.79772376
H        3.98342048       6.73771262       6.04122241
C        2.29212338       6.19996661      11.76053150
C        1.81376496       6.18059867      12.86743443
Br       1.04029986       6.14928235      14.65720286
O        7.55800303      -3.61159625       1.85810481
C        7.14782247      -4.18277850       0.84836228
N        5.82788793      -4.15381315       0.41108580
N        4.89133843      -3.47713790       1.13081896
C        3.82298621      -3.15581500       0.47274846
C        2.73537885      -2.40263721       1.11770161
C        1.90269178      -1.63287609       0.30008507
C        0.88200447      -0.88200447       0.88200447
C        0.66882506      -0.91654990       2.26029750
C        1.49441906      -1.69924964       3.07052046
C        2.53677115      -2.42679573       2.50187487
O        3.32328918      -3.14846235       3.35531625
C        8.09956416      -4.84457670      -0.11752749
C        7.62386180      -6.19854230      -0.57457326
O        7.83576288      -7.20800415       0.08597765
N        6.87848071      -6.12417736      -1.75611147
N        6.16244271      -7.13471250      -2.35050296
C        5.85884541      -8.19302492      -1.66229822
C        5.10205961      -9.31410118      -2.26169191
C        4.99126026     -10.49068432      -1.51209179
C        4.25801103     -11.56195134      -2.02131113
C        3.62937964     -11.46817692      -3.26275892
C        3.74415908     -10.29442988      -4.01046892
C        4.48471739      -9.22383372      -3.51403984
O        4.55587960      -8.10847455      -4.30160219
H        5.54042318      -4.61887793      -0.44474186
H        3.70180121      -3.39195266      -0.60017165
H        2.06458424      -1.59172829      -0.77334763
H       -0.12815558      -0.33324846       2.71471169
H        1.33591584      -1.73006550       4.14559913
H        4.13406440      -3.42103978       2.86930602
H        9.06816131      -4.98339108       0.37719423
H        8.26541680      -4.17439029      -0.96566192
H        7.03384090      -5.33159562      -2.37323576
H        6.11002382      -8.32818223      -0.60139137
H        5.47549725     -10.57587591      -0.54201859
H        3.05154329     -12.30061742      -3.65686724
H        3.25662073     -10.21555296      -4.97869799
H        5.17533808      -7.48564174      -3.86546527
C        4.14729768     -12.77608663      -1.25500959
C        4.05457525     -13.79292493      -0.61323204
Br       3.90465092     -15.43706646       0.42446797
