154
Properties=species:S:1:pos:R:3 pbc="F F F"
C        1.79185358       1.79185358      -1.79185358
C        1.55873041       1.84996403      -3.16357689
C        2.36693728       2.65431962      -3.96919602
C        3.41160349       3.40616925      -3.40935633
C        3.63669476       3.33133672      -2.02655153
C        2.82653110       2.52845753      -1.21907010
C        4.30641756       4.24784770      -4.29382906
C        5.55102602       3.53280817      -4.71286683
C        6.84906411       3.69792711      -4.27296631
N        7.78428606       2.85122371      -4.83690923
C        7.19021266       2.05680652      -5.69740758
S        5.52439554       2.31043706      -5.91771383
N        7.90350952       1.08328146      -6.35120624
C        7.41197166       0.15496175      -7.24067033
O        6.25746412       0.05566808      -7.64007870
C        8.39914117      -0.84067656      -7.73854320
C        7.92120038      -2.06327411      -8.20604747
N        8.71481247      -3.06372284      -8.66697592
C       10.04649025      -2.82754345      -8.67354038
C       10.61281922      -1.63618037      -8.24595094
Br      12.48125481      -1.38728466      -8.29976081
C        9.77975576      -0.62242506      -7.77561550
H        0.75866623       1.27037119      -3.61638194
H        2.18341151       2.68092306      -5.04167823
H        4.44831519       3.89303520      -1.56840491
H        3.01391756       2.48023923      -0.14990542
H        4.57101901       5.16765820      -3.75490385
H        3.74679979       4.58317825      -5.17701429
H        7.17041571       4.41678500      -3.52868920
H        8.86010522       1.05453694      -6.03788508
H        6.85618832      -2.28791726      -8.21837787
H       10.65437148      -3.64693082      -9.04718714
H       10.21569725       0.32302663      -7.47086581
C       -1.79185358      -1.79185358      -1.79185358
C       -1.35503561      -2.15346385      -3.06377187
C       -2.16291131      -2.95744075      -3.87010086
C       -3.41090828      -3.40590881      -3.41031198
C       -3.83849431      -3.02726608      -2.12882262
C       -3.02931613      -2.22467163      -1.32007097
C       -4.29703662      -4.24730942      -4.30374827
C       -5.29341458      -3.43538372      -5.06790271
C       -6.65257653      -3.29859353      -4.86878747
N       -7.30049225      -2.43779826      -5.73412849
C       -6.43123243      -1.93365992      -6.57953441
S       -4.83365392      -2.49235825      -6.42653427
N       -6.82516467      -1.00374427      -7.50908829
C       -6.02426400      -0.35909262      -8.42424712
O       -4.82334670      -0.52835712      -8.60150708
C       -6.70410104       0.66708195      -9.25998873
C       -5.92744530       1.68089117      -9.81741960
N       -6.42511923       2.68750633     -10.58045265
C       -7.75820948       2.67393747     -10.80821517
C       -8.60778871       1.69690207     -10.31170315
Br     -10.45487848       1.74894509     -10.68779757
C       -8.07607725       0.67284696      -9.52971591
H       -0.39460763      -1.81103228      -3.43977945
H       -1.81649498      -3.22215623      -4.86736159
H       -4.80747693      -3.34947130      -1.75280707
H       -3.37471220      -1.93906924      -0.33028077
H       -4.81986939      -4.98894132      -3.68477034
H       -3.67778457      -4.83477104      -4.99443672
H       -7.22443816      -3.79658399      -4.09486777
H       -7.79570012      -0.75954974      -7.39727739
H       -4.85147514       1.72290149      -9.65807527
H       -8.12571664       3.49229452     -11.42120568
H       -8.73163126      -0.11145166      -9.16650678
C       -1.79185358       1.79185358       1.79185358
C       -2.44604398       2.88901285       1.23721449
C       -3.24985021       3.69599369       2.04460902
C       -3.40594666       3.41110674       3.41007567
C       -2.73489229       2.30559890       3.95409181
C       -1.93218160       1.49581128       3.14606585
C       -4.25002582       4.31127852       4.28678998
C       -3.44872968       5.36338653       4.98458480
C       -3.06788497       5.44298763       6.30908493
N       -2.29205786       6.53638547       6.64397568
C       -2.09444292       7.27420651       5.57577732
S       -2.85657651       6.74322488       4.15274505
N       -1.30290627       8.39365020       5.64144075
C       -0.97122824       9.23364840       4.60272710
O       -1.35494324       9.15708007       3.44118759
C       -0.02448485      10.32993759       4.94258537
C        0.73538288      10.88467934       3.91467728
N        1.64828946      11.87366085       4.09269416
C        1.80017438      12.33928846       5.35337311
C        1.07605017      11.86287197       6.43576798
Br       1.34404098      12.57776252       8.16000942
C        0.14443814      10.84648784       6.23089650
H       -2.33263677       3.12934363       0.18343895
H       -3.74513380       4.55842993       1.60244906
H       -2.82734163       2.06998750       5.01242617
H       -1.41817153       0.64368178       3.58220890
H       -4.77384652       3.69214234       5.02759220
H       -5.04415496       4.77556989       3.68726748
H       -3.31899018       4.72044707       7.07645267
H       -0.89440466       8.50273510       6.55538749
H        0.63839831      10.53744972       2.88759751
H        2.53794148      13.12932312       5.46324616
H       -0.44749250      10.49346997       7.06862722
C        1.79185358      -1.79185358       1.79185358
C        2.34750297      -2.95651749       1.26825087
C        3.15134528      -3.76328236       2.07582528
C        3.40590211      -3.41085299       3.41037397
C        2.83328053      -2.23745449       3.92384800
C        2.03065199      -1.42799503       3.11541172
C        4.24875481      -4.30896601       4.29037349
C        3.43242761      -5.26901663       5.09525677
C        3.12860785      -5.24961720       6.44173248
N        2.31331529      -6.27308483       6.88601889
C        2.00952551      -7.05738129       5.87751995
S        2.71312104      -6.65569691       4.38372848
N        1.16077839      -8.12122956       6.05598927
C        0.71934158      -8.99754171       5.09072045
O        1.03572191      -9.01082971       3.90665928
C       -0.26613791     -10.01325144       5.54989428
C       -1.11733024     -10.57873737       4.60256661
N       -2.07276714     -11.49880581       4.89202689
C       -2.17433709     -11.88160979       6.18521449
C       -1.35993649     -11.38889946       7.19362681
Br      -1.56335956     -11.98658957       8.97050095
C       -0.38592105     -10.44419070       6.87467655
H        2.15691675      -3.24932948       0.23917312
H        3.56886088      -4.67798618       1.65916573
H        3.00298831      -1.94781531       4.95895168
H        1.59352171      -0.52277121       3.52776929
H        4.85100254      -3.68140583       4.96117269
H        4.97728415      -4.85400186       3.67570633
H        3.46660265      -4.50097112       7.14831615
H        0.80283915      -8.15298483       6.99670327
H       -1.06307904     -10.29725179       3.55247617
H       -2.94800845     -12.61792566       6.38471059
H        0.27487333     -10.08041525       7.65430111
C       -0.00445707       0.01189536      -1.78238275
H       -0.66409135       0.67374010      -2.43557963
H        0.65740317      -0.63156657      -2.45157240
C       -0.90989263      -0.90692880      -0.91072765
C        0.90977584       0.90977584      -0.90977584
C       -0.00465871       1.77757030       0.00794375
H       -0.66225468       2.44313916      -0.64384735
H        0.64322798       2.43503045       0.67728295
C       -1.78241447       0.00034974      -0.00472694
H       -2.45427497      -0.65498947       0.64260836
H       -2.43311707       0.67328779      -0.65473579
C       -0.91132561       0.90220522       0.91563759
C       -0.01476271      -0.02253852       1.78660255
H       -0.67934791      -0.69751639       2.42135241
H        0.63392994       0.61504881       2.47327442
C        0.01484550      -1.77751727      -0.01636693
H        0.67870853      -2.42144646      -0.68295456
H       -0.62264859      -2.45592969       0.64226336
C        1.78714474       0.01002794       0.00389507
H        2.44202412       0.67113390       0.66197326
H        2.45385902      -0.65136977      -0.64189061
C        0.91606151      -0.90478549       0.90901405
