133
Properties=species:S:1:pos:R:3 pbc="F F F"
C        0.00000000       0.00000000       0.00000000
C        0.88194955       0.88194955      -0.88194955
C        0.64882638       0.94006001      -2.25367286
C        1.45703325       1.74441560      -3.05929200
C        2.50169946       2.49626523      -2.49945231
C        2.72679074       2.42143270      -1.11664751
C        1.91662708       1.61855350      -0.30916608
C        3.39651354       3.33794367      -3.38392503
C        4.64112199       2.62290414      -3.80296280
C        5.93916009       2.78802309      -3.36306229
N        6.87438203       1.94131969      -3.92700521
C        6.28030864       1.14690250      -4.78750355
S        4.61449152       1.40053303      -5.00780981
N        6.99360550       0.17337744      -5.44130221
C        6.50206763      -0.75494227      -6.33076630
O        5.34756010      -0.85423594      -6.73017467
C        7.48923715      -1.75058058      -6.82863917
C        7.01129635      -2.97317814      -7.29614345
N        7.80490845      -3.97362686      -7.75707189
C        9.13658623      -3.73744748      -7.76363636
C        9.70291520      -2.54608440      -7.33604691
Br      11.57135078      -2.29718869      -7.38985679
C        8.86985173      -1.53232908      -6.86571147
H       -0.15123779       0.36046716      -2.70647792
H        1.27350748       1.77101903      -4.13177420
H        3.53841116       2.98313118      -0.65850089
H        2.10401354       1.57033521       0.75999861
H        3.66111498       4.25775417      -2.84499982
H        2.83689576       3.67327422      -4.26711027
H        6.26051169       3.50688098      -2.61878518
H        7.95020120       0.14463292      -5.12798106
H        5.94628430      -3.19782129      -7.30847384
H        9.74446745      -4.55683484      -8.13728312
H        9.30579322      -0.58687739      -6.56096179
C       -0.88194955      -0.88194955      -0.88194955
C       -0.41031995      -1.31286161      -2.11937769
C       -1.21809592      -2.11678100      -2.92586393
C       -2.50082131      -2.49598836      -2.50060733
C       -2.96291007      -2.04804264      -1.25391822
C       -2.15398705      -1.24545500      -0.44490461
C       -3.38481130      -3.33776443      -3.39580651
C       -4.31567656      -2.51921238      -4.23210000
C       -5.67485451      -2.32048384      -4.09490711
N       -6.25179506      -1.47115178      -5.01976009
C       -5.32958198      -1.03727199      -5.84786071
S       -3.76378711      -1.65212547      -5.60692178
N       -5.64755174      -0.13166532      -6.82906809
C       -4.78501088       0.44232710      -7.73520788
O       -3.58602691       0.21836025      -7.85583216
C       -5.38816062       1.45925671      -8.63839183
C       -4.54876496       2.41754547      -9.20304217
N       -4.97374433       3.41072382     -10.02533297
C       -6.29616750       3.44066506     -10.30727267
C       -7.20442979       2.51946601      -9.80791393
Br      -9.03141065       2.62917824     -10.26178647
C       -6.74694165       1.50830895      -8.96460143
H        0.57760223      -1.02464293      -2.46866658
H       -0.84361434      -2.43601989      -3.89666649
H       -3.95853732      -2.31572840      -0.90577751
H       -2.52629043      -0.90571271       0.51765301
H       -3.96199555      -4.03185180      -2.77002162
H       -2.76344507      -3.97737703      -4.03645816
H       -6.29706709      -2.76298144      -3.32612932
H       -6.61083864       0.15526173      -6.76723827
H       -3.47914923       2.42337472      -9.00116234
H       -6.60492767       4.24692969     -10.96691775
H       -7.44824285       0.76632203      -8.59795680
C       -0.88194955       0.88194955       0.88194955
C       -1.45472408       2.03553190       0.35230327
C       -2.25855851       2.84233457       1.15984777
C       -2.49600344       2.50099411       2.50041944
C       -1.90627166       1.33874619       3.01985309
C       -1.10363208       0.52922814       2.21148644
C       -3.33904490       3.39948068       3.37985666
C       -2.52446919       4.37589989       4.16661986
C       -2.20687471       4.37331994       5.51005081
N       -1.39762533       5.40945760       5.93562400
C       -1.11206654       6.18644699       4.91620115
S       -1.82658527       5.76244225       3.43380684
N       -0.27246476       7.26058536       5.07523503
C        0.15022432       8.13141341       4.09670257
O       -0.17822562       8.12941380       2.91585941
C        1.12987272       9.16166595       4.53550251
C        1.96562978       9.72602418       3.57386726
N        2.91449996      10.65860897       3.84424447
C        3.02522062      11.05560287       5.13239287
C        2.22612584      10.56500821       6.15399535
Br       2.44138354      11.18283366       7.92256877
C        1.25863256       9.60729679       5.85456990
H       -1.27754729       2.31973336      -0.68157336
H       -2.68958071       3.74847050       0.73824952
H       -2.06254367       1.05798975       4.05950981
H       -0.65313750      -0.36727445       2.62848709
H       -3.92804399       2.77274729       4.06307770
H       -4.07927572       3.93082198       2.76718255
H       -2.53005025       3.62854913       6.22757846
H        0.09462056       7.30555912       6.01187661
H        1.90364539       9.43329838       2.52728386
H        3.79331085      11.80169856       5.31652802
H        0.60949956       9.24484028       6.64453691
C        0.88194955      -0.88194955       0.88194955
C        1.38707840      -2.07775521       0.37772564
C        2.19094780      -2.88440792       1.18538513
C        2.49598800      -2.50081329       2.50061571
C        1.97385211      -1.29606482       2.99495401
C        1.17124845      -0.48678193       2.18631628
C        3.33834196      -3.39778670       3.38225358
C        2.51890034      -4.30866579       4.23942281
C        2.25664434      -4.24056686       5.59303426
N        1.42546846      -5.22542372       6.09181476
C        1.06842240      -6.02944095       5.11685133
S        1.73800483      -5.69324618       3.59158335
N        0.19459659      -7.06143417       5.35225439
C       -0.30136792      -7.95195308       4.42730650
O       -0.02147086      -8.00955800       3.23541169
C       -1.30190147      -8.92347458       4.94572263
C       -2.19759000      -9.49052373       4.04132794
N       -3.17043298     -10.37237975       4.38640671
C       -3.24403785     -10.71380821       5.69300475
C       -2.38539727     -10.21656400       6.66171099
Br      -2.55244390     -10.75540777       8.46105501
C       -1.39416085      -9.31151718       6.28587779
H        1.15694111      -2.39475271      -0.63598654
H        2.56863805      -3.82315828       0.78450439
H        2.18321864      -0.98142894       4.01539565
H        0.77355254       0.44296382       2.58376141
H        3.97876577      -2.76930700       4.01579621
H        4.03163292      -3.98241703       2.76323030
H        2.63768700      -3.48206601       6.26642483
H       -0.13550480      -7.05471933       6.30360065
H       -2.16688368      -9.24175601       2.98206451
H       -4.03260348     -11.42021350       5.93730571
H       -0.69969475      -8.94516381       7.03440856
