181
Properties=species:S:1:pos:R:3 pbc="F F F"
C        0.00000000       0.00000000       0.00000000
C        0.88139387       0.88139387      -0.88139387
C        0.76733971       2.26685000      -0.80882813
C        1.58025564       3.07012856      -1.61332251
C        2.51255298       2.49407495      -2.49080546
C        2.61598895       1.09851812      -2.55442001
C        1.79885211       0.29433760      -1.75093382
C        3.37255326       3.41152730      -3.30204953
O        3.22923372       4.62964147      -3.19524043
C        4.46168070       2.85130785      -4.18821624
C        5.73640804       2.67317862      -3.37565951
C        6.84550778       2.13955367      -4.25673877
O        6.69358743       1.04441646      -4.80696634
N        8.01241183       2.87401209      -4.41188977
C        8.25544135       4.21144548      -3.88178026
C        8.99098471       2.37299006      -5.39409879
C       10.02048222       1.38251052      -4.82209489
O       10.80028814       0.79562220      -5.56928761
N       10.03128002       1.33406388      -3.44182681
C       10.83048979       0.54399586      -2.58858679
C       11.69757662      -0.44520371      -3.05975330
C       12.44579686      -1.22137649      -2.16759691
C       12.34299972      -1.01292506      -0.79440194
C       11.48946732      -0.02604955      -0.30675437
C       10.73541835       0.74357359      -1.19829327
H        0.05561662       2.73281500      -0.13193116
H        1.48541579       4.15314987      -1.54586393
H        3.32281584       0.60172183      -3.21265437
H        1.88938554      -0.78801605      -1.80976721
H        4.62910910       3.56741095      -5.00332944
H        4.13826525       1.93071149      -4.68213201
H        5.58695571       1.94072929      -2.57291722
H        5.98250808       3.61103546      -2.88061142
H        7.78705073       4.35644622      -2.90896450
H        7.86417852       4.94316842      -4.59397861
H        9.33187546       4.36209860      -3.75326369
H        9.53645184       3.22413741      -5.81740320
H        8.46414607       1.86845453      -6.21156327
H        9.36166048       1.93981402      -2.98027103
H       11.80182499      -0.65317191      -4.12049098
H       13.10635515      -1.99494055      -2.55310946
H       12.92592789      -1.62062638      -0.10671915
H       11.41748316       0.13369880       0.76591193
C        9.87042248       1.75339750      -0.64544809
C        9.14598843       2.59912503      -0.18244025
Br       7.97463985       3.96659492       0.56620426
C       -0.88139387      -0.88139387      -0.88139387
C       -2.26545488      -0.73886238      -0.83870057
C       -3.06834381      -1.54382505      -1.65153785
C       -2.49305414      -2.49171610      -2.51266314
C       -1.09897273      -2.62526848      -2.54468587
C       -0.29542986      -1.82114742      -1.72754626
C       -3.40799220      -3.30039444      -3.37774345
O       -4.62478313      -3.13006477      -3.29926772
C       -2.84161737      -4.26387727      -4.39571016
C       -2.56478101      -3.52378245      -5.69668271
C       -2.02376066      -4.48192647      -6.73611309
O       -0.96509663      -5.07450125      -6.50537235
N       -2.70975312      -4.65953725      -7.92902332
C       -4.00689826      -4.08019789      -8.26157094
C       -2.21228638      -5.71068103      -8.83510616
C       -1.14813871      -5.23645562      -9.84049330
O       -0.56277613      -6.04740513     -10.55501668
N       -1.03183387      -3.86212355      -9.91321328
C       -0.16462426      -3.08670950     -10.71173868
C        0.83968991      -3.64527514     -11.50654099
C        1.69256228      -2.82789380     -12.25668577
C        1.54691669      -1.44309593     -12.22829737
C        0.54635842      -0.86885767     -11.44767291
C       -0.30022066      -1.68564321     -10.69142134
H       -2.73043377      -0.00701048      -0.18291854
H       -4.15001471      -1.42142047      -1.61299441
H       -0.60254888      -3.33969767      -3.19494549
H        0.78579584      -1.93470490      -1.76222764
H       -3.58812594      -5.05194597      -4.55977758
H       -1.96233428      -4.78375345      -4.00502103
H       -1.80173058      -2.74969674      -5.54917490
H       -3.46483241      -2.99819319      -6.01112935
H       -4.12584315      -3.07995209      -7.84666621
H       -4.78999339      -4.73755078      -7.87378138
H       -4.10076834      -3.99756954      -9.34889989
H       -3.05676478      -6.12002086      -9.40120681
H       -1.77340766      -6.52403755      -8.24671865
H       -1.64484254      -3.34066581      -9.29623719
H        1.00019349      -4.71837740     -11.55096014
H        2.47629646      -3.28085842     -12.85996208
H        2.21400585      -0.81379208     -12.81223443
H        0.43605107       0.21232210     -11.43364321
C       -1.32102233      -1.04472655      -9.90351919
C       -2.17594372      -0.50795885      -9.24365114
Br      -3.55827931       0.35994913      -8.17670032
C       -0.88139387       0.88139387       0.88139387
C       -1.56409186       1.95753601       0.32138997
C       -2.37448801       2.75839753       1.13082116
C       -2.50950802       2.48641542       2.50150995
C       -1.81593969       1.40095856       3.05202883
C       -1.00144762       0.60128544       2.24139048
C       -3.41609247       3.36482166       3.30521596
O       -3.99652848       4.30147848       2.75610866
C       -3.67903175       3.05984148       4.76233156
C       -4.83470223       2.07563593       4.87490801
C       -5.12918356       1.78224884       6.33036782
O       -4.24382346       1.27504844       7.02609833
N       -6.38518784       2.06585903       6.84726682
C       -7.46596539       2.74356274       6.13913895
C       -6.56337397       1.89412003       8.30057956
C       -7.01253782       0.48542701       8.72712280
O       -7.06450362       0.18326494       9.91742938
N       -7.43500608      -0.30132010       7.67348473
C       -7.90278103      -1.63240232       7.69269374
C       -7.89344132      -2.42481328       8.84349818
C       -8.34142462      -3.74983269       8.80042536
C       -8.81193935      -4.29646213       7.60899940
C       -8.83583610      -3.51908671       6.45342275
C       -8.37997257      -2.19764254       6.49495517
H       -1.47740837       2.18178242      -0.73882802
H       -2.90715574       3.59564051       0.68163334
H       -1.88810844       1.14418212       4.10490148
H       -0.46853775      -0.23872312       2.68132207
H       -3.93626036       4.00442306       5.25916608
H       -2.77235642       2.71284928       5.26590306
H       -4.57869767       1.11927325       4.40263129
H       -5.69085069       2.46011786       4.32318640
H       -7.48979143       2.48039447       5.08227554
H       -7.32935894       3.82290888       6.24905772
H       -8.42663595       2.44814544       6.57245637
H       -7.31292228       2.61165603       8.65341414
H       -5.61982512       2.11079754       8.81354121
H       -7.38793731       0.13467924       6.75912899
H       -7.52397422      -2.04704922       9.79221905
H       -8.31504285      -4.35470777       9.70418897
H       -9.15698373      -5.32711103       7.58214796
H       -9.20818769      -3.95113726       5.52821961
C       -8.42813217      -1.43395673       5.27509263
C       -8.46846583      -0.79436986       4.25345774
Br      -8.53368195       0.23978801       2.60156054
C        0.88139387      -0.88139387       0.88139387
C        0.31908941      -1.95007090       1.57385753
C        1.13068002      -2.75793954       2.37508716
C        2.50712315      -2.50462977       2.48568047
C        3.05950717      -1.42522509       1.78419482
C        2.24535327      -0.61414436       0.98462591
C        3.32398130      -3.42571349       3.33643531
O        2.77308972      -4.35658051       3.92444538
C        4.82500213      -3.26320190       3.41300076
C        5.47816392      -4.03314759       2.27393466
C        6.98415738      -3.90373767       2.35390517
O        7.48981633      -2.77977201       2.27538189
N        7.76465075      -5.04268809       2.49097485
C        7.26613228      -6.40055561       2.68197920
C        9.20851126      -4.84027741       2.70928489
C       10.04462903      -4.76061725       1.41984135
O       11.23566476      -4.46082117       1.46871202
N        9.35648249      -5.15985756       0.29083066
C        9.80113790      -5.20931097      -1.04737642
C       11.04540510      -4.72017834      -1.45345723
C       11.42497618      -4.76660068      -2.79955957
C       10.56943507      -5.30988764      -3.75484610
C        9.32820342      -5.80932020      -3.36735147
C        8.94571732      -5.75486210      -2.02329422
H       -0.74352498      -2.16654120       1.49734656
H        0.68105468      -3.59376282       2.90961209
H        4.11824768      -1.18748935       1.83145501
H        2.68688672       0.22066633       0.44491631
H        5.15465475      -3.66529314       4.37990160
H        5.11019738      -2.20759824       3.43331313
H        5.17434610      -3.62341899       1.30283714
H        5.12532649      -5.06299095       2.28583751
H        6.34544809      -6.57927675       2.12773660
H        7.09230382      -6.55916727       3.74985445
H        8.01101969      -7.11615512       2.32006295
H        9.59522824      -5.66775881       3.31500539
H        9.36806723      -3.91018504       3.26591160
H        8.39473206      -5.44206538       0.44494809
H       11.74078930      -4.27588749      -0.74753274
H       12.39283827      -4.36971944      -3.09803366
H       10.86990060      -5.34135314      -4.79923308
H        8.66749692      -6.23553769      -4.11776458
C        7.65452872      -6.28710122      -1.67236187
C        6.57315826      -6.73285149      -1.37845604
Br       4.82467370      -7.45359196      -0.90323516
