173
Properties=species:S:1:pos:R:3 pbc="F F F"
C        0.00000000       0.00000000       0.00000000
C        0.88139387       0.88139387      -0.88139387
C        0.76733971       2.26685000      -0.80882813
C        1.58025564       3.07012856      -1.61332251
C        2.51255298       2.49407495      -2.49080546
C        2.61598895       1.09851812      -2.55442001
C        1.79885211       0.29433760      -1.75093382
C        3.37255326       3.41152730      -3.30204953
O        3.22923372       4.62964147      -3.19524043
C        4.46168070       2.85130785      -4.18821624
C        5.73640804       2.67317862      -3.37565951
C        6.84550778       2.13955367      -4.25673877
O        6.69358743       1.04441646      -4.80696634
N        8.01241183       2.87401209      -4.41188977
C        8.25544135       4.21144548      -3.88178026
C        8.99098471       2.37299006      -5.39409879
C       10.02048222       1.38251052      -4.82209489
O       10.80028814       0.79562220      -5.56928761
N       10.03128002       1.33406388      -3.44182681
C       10.83048979       0.54399586      -2.58858679
C       11.69757662      -0.44520371      -3.05975330
C       12.44579686      -1.22137649      -2.16759691
C       12.34299972      -1.01292506      -0.79440194
C       11.48946732      -0.02604955      -0.30675437
C       10.73541835       0.74357359      -1.19829327
Br       9.59129233       2.07926298      -0.46704752
H        0.05561662       2.73281500      -0.13193116
H        1.48541579       4.15314987      -1.54586393
H        3.32281584       0.60172183      -3.21265437
H        1.88938554      -0.78801605      -1.80976721
H        4.62910910       3.56741095      -5.00332944
H        4.13826525       1.93071149      -4.68213201
H        5.58695571       1.94072929      -2.57291722
H        5.98250808       3.61103546      -2.88061142
H        7.78705073       4.35644622      -2.90896450
H        7.86417852       4.94316842      -4.59397861
H        9.33187546       4.36209860      -3.75326369
H        9.53645184       3.22413741      -5.81740320
H        8.46414607       1.86845453      -6.21156327
H        9.36166048       1.93981402      -2.98027103
H       11.80182499      -0.65317191      -4.12049098
H       13.10635515      -1.99494055      -2.55310946
H       12.92592789      -1.62062638      -0.10671915
H       11.41748316       0.13369880       0.76591193
C       -0.88139387      -0.88139387      -0.88139387
C       -1.35058254      -2.09810732      -0.39432797
C       -2.16197631      -2.89923690      -1.20249350
C       -2.51116349      -2.48773394      -2.49853595
C       -2.03110671      -1.26151686      -2.97630351
C       -1.21538045      -0.46114881      -2.16759427
C       -3.40725481      -3.37875854      -3.30011674
O       -3.79378851      -4.44320901      -2.81711810
C       -3.89781085      -2.94176173      -4.66163222
C       -5.16630974      -2.11543676      -4.50349967
C       -5.68630531      -1.69428017      -5.86121474
O       -4.96869988      -0.99404059      -6.58222976
N       -6.95795602      -2.08097741      -6.25938025
C       -7.84599869      -2.97669259      -5.52597581
C       -7.34886339      -1.76413076      -7.64507941
C       -8.01464215      -0.38811351      -7.82233198
O       -8.26144500       0.04291614      -8.94666908
N       -8.38171918       0.20458656      -6.63003809
C       -9.00189560       1.45358620      -6.41476304
C       -9.24103689       2.37051583      -7.44160516
C       -9.83265513       3.60884655      -7.16820871
C      -10.20009789       3.94255936      -5.86693808
C       -9.97641496       3.03790210      -4.83165929
C       -9.37725944       1.80396570      -5.10399146
Br      -9.10368370       0.61082883      -3.64474796
H       -1.09631572      -2.43243382       0.60838676
H       -2.52669384      -3.84764638      -0.81008937
H       -2.27395217      -0.89410362      -3.96913626
H       -0.84950783       0.48891976      -2.55054863
H       -4.10597151      -3.84691506      -5.24696293
H       -3.11447091      -2.41899793      -5.21763992
H       -4.96404628      -1.19595360      -3.94060235
H       -5.88903597      -2.67398797      -3.91113101
H       -7.75853471      -2.84592883      -4.44799790
H       -7.59875770      -4.00725640      -5.79531145
H       -8.88431174      -2.76390805      -5.79901797
H       -8.04888674      -2.52908722      -8.00001849
H       -6.46386449      -1.78986914      -8.29043024
H       -8.16099252      -0.32615146      -5.79460155
H       -8.96036063       2.16066782      -8.46945125
H       -9.99966018       4.31435111      -7.97921498
H      -10.65781586       4.90702380      -5.66122860
H      -10.26950769       3.30355285      -3.81931519
C       -0.88139387       0.88139387       0.88139387
C       -2.20701520       0.52435725       1.11164538
C       -3.00876334       1.33105832       1.92388505
C       -2.48982546       2.49529627       2.51231165
C       -1.15447087       2.84320685       2.27124936
C       -0.35289470       2.03664596       1.45458287
C       -3.39316283       3.29797721       3.39499005
O       -4.55668001       2.93294534       3.56449027
C       -2.86181280       4.50434014       4.13505186
C       -2.26094880       4.06238852       5.46190885
C       -1.75000132       5.26357898       6.22821991
O       -0.86351159       5.95895287       5.72250576
N       -2.26693989       5.54715910       7.48421469
C       -3.37204021       4.84670979       8.12991709
C       -1.83542498       6.80799265       8.11465593
C       -0.56259920       6.69091343       8.97157500
O       -0.03146713       7.69713930       9.43659151
N       -0.19024386       5.38635402       9.23057283
C        0.91411884       4.90924802       9.96794326
C        1.91015880       5.74855674      10.47372829
C        3.00080184       5.21974823      11.17307089
C        3.10511406       3.84685263      11.38273804
C        2.11771448       2.99544841      10.89243822
C        1.03236392       3.52353346      10.18611567
Br      -0.28521674       2.30586987       9.54651623
H       -2.62651350      -0.37606199       0.66991127
H       -4.04356167       1.04039030       2.10047761
H       -0.70211197       3.73048907       2.70459100
H        0.68248093       2.31795194       1.27566569
H       -3.70455024       5.18601649       4.30928276
H       -2.16085581       5.07285575       3.51739719
H       -1.40214145       3.39981035       5.29865041
H       -2.99266767       3.47138519       6.01010210
H       -3.37012771       3.78172086       7.90061286
H       -4.31077731       5.29610847       7.79443977
H       -3.28269654       4.94854362       9.21599759
H       -2.64370184       7.17936750       8.75492311
H       -1.64553114       7.55887894       7.33975379
H       -0.78567547       4.67483204       8.82123803
H        1.87903214       6.82374281      10.32443339
H        3.77241031       5.88824797      11.54868639
H        3.95594189       3.44247106      11.92549150
H        2.20370415       1.92554951      11.06342467
C        0.88139387      -0.88139387       0.88139387
C        0.85709080      -0.72188073       2.26404630
C        1.66128320      -1.53482613       3.06759737
C        2.49023210      -2.51242906       2.49477222
C        2.50559897      -2.66136156       1.10196655
C        1.70251641      -1.84426012       0.29734700
C        3.30337596      -3.36906583       3.41368830
O        3.24038662      -3.18443593       4.62929306
C        4.13661574      -4.50312663       2.86146243
C        3.27935790      -5.75595485       2.74993343
C        4.10774876      -6.90897403       2.22507743
O        4.62688547      -6.80910742       1.10897733
N        4.24998732      -8.05678141       2.99154496
C        3.75591036      -8.24075220       4.35200453
C        5.18452980      -9.08164538       2.49189838
C        4.54906703     -10.12259073       1.55342986
O        5.25226661     -10.94399672       0.96893462
N        3.16829032     -10.09042633       1.54845406
C        2.26551702     -10.88600182       0.81155360
C        2.67728453     -11.79826411      -0.16342242
C        1.73767287     -12.54121412      -0.88686970
C        0.37578270     -12.38777987      -0.63908597
C       -0.05294714     -11.48859998       0.33451931
C        0.88601855     -10.74001162       1.05125503
Br       0.23424078      -9.53179790       2.37156416
H        0.21809620       0.02547279       2.72773937
H        1.63174007      -1.40411062       4.14857891
H        3.12510935      -3.40418479       0.60789790
H        1.72359894      -1.97037487      -0.78283711
H        4.96875189      -4.67429662       3.55680099
H        4.61047176      -4.22467657       1.91596042
H        2.45849267      -5.60365146       2.03845809
H        2.80733951      -5.95659217       3.71022328
H        2.80336167      -7.73697009       4.51212968
H        4.50317357      -7.84999048       5.04816150
H        3.59878373      -9.30726168       4.54119235
H        5.61780416      -9.61363782       3.34655047
H        6.00135996      -8.59741539       1.94538852
H        2.74760924      -9.38770858       2.14642772
H        3.72700211     -11.94306771      -0.40092576
H        2.07726414     -13.23766711      -1.65040721
H       -0.34897578     -12.96693343      -1.20593699
H       -1.11714154     -11.37714867       0.52526291
