194
Properties=species:S:1:pos:R:3 pbc="F F F"
C        1.79129789       1.79129789      -1.79129789
C        1.67724373       3.17675402      -1.71873215
C        2.49015967       3.98003259      -2.52322653
C        3.42245700       3.40397897      -3.40070948
C        3.52589297       2.00842214      -3.46432404
C        2.70875613       1.20424163      -2.66083785
C        4.28245729       4.32143132      -4.21195355
O        4.13913775       5.53954549      -4.10514445
C        5.37158472       3.76121188      -5.09812027
C        6.64631207       3.58308265      -4.28556353
C        7.75541180       3.04945770      -5.16664279
O        7.60349145       1.95432048      -5.71687037
N        8.92231585       3.78391611      -5.32179379
C        9.16534537       5.12134951      -4.79168428
C        9.90088873       3.28289409      -6.30400282
C       10.93038624       2.29241455      -5.73199891
O       11.71019216       1.70552622      -6.47919163
N       10.94118404       2.24396790      -4.35173084
C       11.74039382       1.45389988      -3.49849082
C       12.60748065       0.46470032      -3.96965733
C       13.35570089      -0.31147247      -3.07750094
C       13.25290374      -0.10302103      -1.70430597
C       12.39937134       0.88385448      -1.21665840
C       11.64532238       1.65347761      -2.10819729
Br      10.50119636       2.98916700      -1.37695155
H        0.96552064       3.64271903      -1.04183518
H        2.39531981       5.06305389      -2.45576796
H        4.23271987       1.51162585      -4.12255839
H        2.79928957       0.12188797      -2.71967123
H        5.53901312       4.47731498      -5.91323347
H        5.04816927       2.84061552      -5.59203604
H        6.49685973       2.85063331      -3.48282125
H        6.89241210       4.52093948      -3.79051544
H        8.69695475       5.26635024      -3.81886852
H        8.77408254       5.85307244      -5.50388264
H       10.24177949       5.27200263      -4.66316772
H       10.44635587       4.13404143      -6.72730723
H        9.37405009       2.77835855      -7.12146729
H       10.27156451       2.84971805      -3.89017505
H       12.71172901       0.25673211      -5.03039501
H       14.01625917      -1.08503653      -3.46301348
H       13.83583191      -0.71072235      -1.01662317
H       12.32738719       1.04360282      -0.14399210
C       -1.79129789      -1.79129789      -1.79129789
C       -2.13638371      -3.07088457      -1.36546162
C       -2.94825208      -3.87229392      -2.17287278
C       -3.42175565      -3.39864403      -3.40674577
C       -3.06582436      -2.10943683      -3.82337796
C       -2.24955230      -1.30849737      -3.01578593
C       -4.31109798      -4.29629945      -4.20844474
O       -4.58491049      -5.41793080      -3.78098640
C       -4.93192617      -3.80334001      -5.49565070
C       -6.23958412      -3.08776286      -5.18761126
C       -6.88830395      -2.61303812      -6.47017023
O       -6.27760617      -1.81218097      -7.18489517
N       -8.15614443      -3.06544366      -6.80643766
C       -8.92178930      -4.07441952      -6.08217033
C       -8.67127192      -2.68282097      -8.13369275
C       -9.44300868      -1.35171997      -8.16007105
O       -9.80312823      -0.86294986      -9.22883194
N       -9.75995540      -0.87305059      -6.90387679
C      -10.44795419       0.30770219      -6.55253252
C      -10.82707830       1.27357016      -7.48833015
C      -11.48155599       2.44179534      -7.08196872
C      -11.77257909       2.65520239      -5.73681197
C      -11.40905521       1.69979068      -4.79061969
C      -10.74730711       0.53642871      -5.19611888
Br     -10.28213232      -0.73181502      -3.85336757
H       -1.78473755      -3.45440256      -0.41093473
H       -3.21528088      -4.87052686      -1.82833392
H       -3.40767875      -1.69283891      -4.76638646
H       -1.98078022      -0.30918760      -3.35088094
H       -5.11973000      -4.67845819      -6.13137339
H       -4.23103822      -3.18561145      -6.06417116
H       -6.06033369      -2.19726613      -4.57271447
H       -6.87494493      -3.73907517      -4.58984693
H       -8.76290779      -4.01309810      -5.00616762
H       -8.62408357      -5.06214052      -6.44481353
H       -9.99001000      -3.92171471      -6.26522512
H       -9.34082277      -3.47154792      -8.49533384
H       -7.83764894      -2.59681546      -8.83941153
H       -9.44051976      -1.44277506      -6.12816279
H      -10.61046933       1.15774696      -8.54613376
H      -11.75792967       3.18769407      -7.82400053
H      -12.27981369       3.56580032      -5.42771937
H      -11.64307947       1.87127206      -3.74317469
C       -1.79129789       1.79129789       1.79129789
C       -3.07246228       1.36738607       2.13288154
C       -3.87388082       2.17477575       2.94476221
C       -3.39867492       3.40669832       3.42177221
C       -2.10788664       3.82140857       3.06934395
C       -1.30692931       3.01384803       2.25305827
C       -4.29651012       4.20841475       4.31091730
O       -5.41957665       3.78270237       4.58154868
C       -3.80218821       5.49332811       4.93540056
C       -3.08993442       5.18113600       6.24388782
C       -2.61391401       6.46138265       6.89621563
O       -1.81033837       7.17571106       6.28863287
N       -3.06823425       6.79597760       8.16381391
C       -4.08026584       6.07221681       8.92589651
C       -2.68394914       8.12138361       8.68245288
C       -1.35438622       8.14344193       9.45697156
O       -0.86416581       9.21045463       9.82028958
N       -0.87894772       6.88561862       9.77231644
C        0.29966483       6.53043685      10.46201249
C        1.26666921       7.46346703      10.84504048
C        2.43271025       7.05336285      11.50107676
C        2.64275831       5.70717597      11.78977102
C        1.68615674       4.76369769      11.42234328
C        0.52499208       5.17294454      10.75904482
Br      -0.74504481       3.83376059      10.28850950
H       -3.45721407       0.41437312       1.77848766
H       -4.87336540       1.83174272       3.20903355
H       -1.69005856       4.76285526       3.41399029
H       -0.30638370       3.34743861       1.98702646
H       -4.67638452       6.13046193       5.12271512
H       -3.18185493       6.06201418       4.23695172
H       -2.20033449       4.56477882       6.06520098
H       -3.74377660       4.58340966       6.87668077
H       -4.02082561       4.99641853       8.76492937
H       -5.06662662       6.43749987       8.62691113
H       -3.92938222       6.25276528       9.99480233
H       -3.47330731       8.48327101       9.35112620
H       -2.59478231       8.82863290       7.85046072
H       -1.44960456       6.11173454       9.45011851
H        1.15346205       8.52194869      10.63036949
H        3.17956003       7.79329105      11.78050510
H        3.55167546       5.39517195      12.29823625
H        1.85500730       3.71542443      11.65456497
C        1.79129789      -1.79129789       1.79129789
C        1.78324957      -1.61711144       3.17236890
C        2.58734383      -2.43006257       3.97601239
C        3.39995229      -3.42228324       3.40490992
C        3.39906875      -3.58590195       2.01366846
C        2.59611633      -2.76881810       1.20890118
C        4.21375799      -4.27781099       4.32427319
O        4.16552753      -4.07984633       5.53845383
C        5.02924080      -5.42630252       3.77537355
C        4.15782160      -6.67111312       3.68602353
C        4.96854686      -7.83822406       3.16474138
O        5.47689427      -7.75549704       2.04229100
N        5.10687310      -8.97940390       3.94174876
C        4.62528263      -9.14393917       5.30915737
C        6.02534215     -10.01923044       3.44321304
C        5.36918149     -11.06315444       2.52246378
O        6.05756202     -11.89799057       1.93935743
N        3.98884016     -11.01647851       2.53156411
C        3.07008652     -11.81013526       1.81256274
C        3.46199904     -12.73681964       0.84301961
C        2.50710243     -13.47732761       0.13729932
C        1.14957817     -13.30695572       0.39765479
C        0.74055413     -12.39318767       1.36614242
C        1.69479291     -11.64710521       2.06509916
Br       1.06962942     -10.41836476       3.37932073
H        1.15701941      -0.85825810       3.63479734
H        2.57057279      -2.28776464       5.05580424
H        4.00554367      -4.34033704       1.52102341
H        2.60448413      -2.90641819       0.12994645
H        5.86683405      -5.59897344       4.46375408
H        5.49597664      -5.16275303       2.82209116
H        3.33113082      -6.51759409       2.98158938
H        3.69389154      -6.85672345       4.65325204
H        3.67978750      -8.62849163       5.47389439
H        5.38388732      -8.75383633       5.99331396
H        4.45903515     -10.20669844       5.51121625
H        6.46203140     -10.54681295       4.29886018
H        6.84137195      -9.54937664       2.88312734
H        3.58185013     -10.30315736       3.12645011
H        4.50758366     -12.89516113       0.59611134
H        2.83133030     -14.18525765      -0.62235183
H        0.41287312     -13.88431714      -0.15545752
H       -0.32034721     -12.26853022       1.56679910
C       -0.00445707       0.01189536      -1.78238275
H       -0.66409135       0.67374010      -2.43557963
H        0.65740317      -0.63156657      -2.45157240
C       -0.90989263      -0.90692880      -0.91072765
C        0.90977584       0.90977584      -0.90977584
C       -0.00465871       1.77757030       0.00794375
H       -0.66225468       2.44313916      -0.64384735
H        0.64322798       2.43503045       0.67728295
C       -1.78241447       0.00034974      -0.00472694
H       -2.45427497      -0.65498947       0.64260836
H       -2.43311707       0.67328779      -0.65473579
C       -0.91132561       0.90220522       0.91563759
C       -0.01476271      -0.02253852       1.78660255
H       -0.67934791      -0.69751639       2.42135241
H        0.63392994       0.61504881       2.47327442
C        0.01484550      -1.77751727      -0.01636693
H        0.67870853      -2.42144646      -0.68295456
H       -0.62264859      -2.45592969       0.64226336
C        1.78714474       0.01002794       0.00389507
H        2.44202412       0.67113390       0.66197326
H        2.45385902      -0.65136977      -0.64189061
C        0.91606151      -0.90478549       0.90901405
