134
Properties=species:S:1:pos:R:3 pbc="F F F"
C        1.79136060       1.79136060      -1.79136060
C        2.77171656       1.21061410      -2.59141688
C        3.57644822       2.02030726      -3.39887417
C        3.41051450       3.41496034      -3.41539763
C        2.41640987       3.97963886      -2.59986557
C        1.60978157       3.17241573      -1.79108059
C        4.26466912       4.23010219      -4.27311986
O        4.06135632       5.58057505      -4.25266074
N        4.97649581       6.13664204      -5.14216508
C        5.64709759       5.07380787      -5.61686546
N        5.22688645       3.86980891      -5.09162443
C        6.72221625       5.16214150      -6.60084556
C        7.11629841       6.39987015      -7.13413495
C        8.14510361       6.47554719      -8.07880856
C        8.78693636       5.31208617      -8.49603701
C        8.41136450       4.07455170      -7.97841100
C        7.38200622       4.00139566      -7.03410568
H        2.91882074       0.13340859      -2.59653744
H        4.33952545       1.55402297      -4.02107530
H        2.25476839       5.05629654      -2.58297311
H        0.84554241       3.63070562      -1.16811027
H        6.62486219       7.31920029      -6.81974000
H        8.43356857       7.44401630      -8.47936361
H        8.90885866       3.16359849      -8.30037535
H        7.09827360       3.02770171      -6.63829013
C        9.84553973       5.38914401      -9.46918705
C       10.73212005       5.45367995     -10.28420020
Br      12.16564545       5.55802911     -11.60200755
C       -1.79136060      -1.79136060      -1.79136060
C       -3.00903272      -1.30509079      -2.25962402
C       -3.81347761      -2.11410246      -3.06804958
C       -3.41078758      -3.41391742      -3.41616747
C       -2.17940248      -3.88451803      -2.93199379
C       -1.37241117      -3.07770069      -2.12316604
C       -4.27262612      -4.22999049      -4.26527456
O       -3.83384760      -5.48582749      -4.57491701
N       -4.80701170      -6.06082072      -5.38747050
C       -5.74206172      -5.10213085      -5.49357833
N       -5.43785044      -3.94813517      -4.80233418
C       -6.97214772      -5.24614071      -6.26691489
C       -7.24705117      -6.42541504      -6.97783730
C       -8.42638474      -6.55417891      -7.71889571
C       -9.33915848      -5.50282445      -7.75307660
C       -9.08539084      -4.32498233      -7.05395403
C       -7.90515986      -4.19845313      -6.31389457
H       -3.34212804      -0.30208259      -2.00455614
H       -4.76368117      -1.72202174      -3.42892081
H       -1.82989288      -4.88592817      -3.17821699
H       -0.42234100      -3.46199120      -1.76002611
H       -6.54421567      -7.25686877      -6.96271803
H       -8.61876314      -7.47555248      -8.26263286
H       -9.79420183      -3.50154493      -7.07708574
H       -7.71927878      -3.27225238      -5.77273428
C      -10.55303590      -5.63434174      -8.51649315
C      -11.56965823      -5.74448746      -9.15585451
Br     -13.21345056      -5.92258379     -10.18964775
C       -1.79136060       1.79136060       1.79136060
C       -1.40109739       3.09731038       2.07533976
C       -2.21122087       3.90277757       2.88163122
C       -3.41652028       3.41318091       3.41117128
C       -3.79029640       2.09276610       3.11285181
C       -2.98214124       1.28454467       2.30659198
C       -4.24030683       4.28211195       4.24547240
O       -5.40282459       3.75752679       4.73424073
N       -6.01032434       4.76058050       5.48439809
C       -5.16107117       5.79625708       5.38044265
N       -4.04572928       5.52758779       4.61500272
C       -5.38079531       7.09596204       6.00844596
C       -6.53568079       7.34844005       6.76618266
C       -6.74014263       8.59737757       7.36193916
C       -5.78921358       9.60249204       7.20335391
C       -4.63640524       9.37174286       6.45617909
C       -4.43436180       8.12207686       5.86106889
H       -0.47300030       3.49928614       1.67648033
H       -1.89547500       4.92317070       3.09597802
H       -4.71669184       1.67428081       3.50306538
H       -3.29129502       0.26538661       2.08767667
H       -7.28965771       6.57436496       6.89977981
H       -7.64178231       8.77161074       7.94355543
H       -3.89112065      10.15241501       6.32929684
H       -3.52926900       7.95560444       5.27939201
C       -5.99946684      10.88876685       7.81563709
C       -6.17555395      11.96602200       8.32842426
Br      -6.46027191      13.70785246       9.15755773
C        1.79136060      -1.79136060       1.79136060
C        1.29171465      -2.99100085       2.29103203
C        2.10187391      -3.79699276       3.09676299
C        3.41619874      -3.41386295       3.41081078
C        3.89940650      -2.19947306       2.89703474
C        3.09151216      -1.39102989       2.09073584
C        4.23608213      -4.28083803       4.25097101
O        5.50697753      -3.86235917       4.52525540
N        6.08702371      -4.84233496       5.32594426
C        5.11568955      -5.76033969       5.46174167
N        3.94753108      -5.43703608       4.80375263
C        5.26296450      -6.99482723       6.22741159
C        6.47091087      -7.30838237       6.87101026
C        6.60482979      -8.49466527       7.59996429
C        5.52974081      -9.37544340       7.68987532
C        4.32269418      -9.08230629       7.05932673
C        4.19132700      -7.89555341       6.33062715
H        0.27791737      -3.30955183       2.06129756
H        1.69982890      -4.73376386       3.48103095
H        4.91231578      -1.86546501       3.11625724
H        3.48631512      -0.45513116       1.70291202
H        7.32169345      -6.63160335       6.81050568
H        7.54925481      -8.71811844       8.08957523
H        3.48058625      -9.76594823       7.12629802
H        3.24258355      -7.67928335       5.84239854
C        5.66717602     -10.59729855       8.43939621
C        5.78227801     -11.62060223       9.06711996
Br       5.96838820     -13.27519774      10.08209616
C       -0.00445707       0.01189536      -1.78238275
H       -0.66409135       0.67374010      -2.43557963
H        0.65740317      -0.63156657      -2.45157240
C       -0.90989263      -0.90692880      -0.91072765
C        0.90977584       0.90977584      -0.90977584
C       -0.00465871       1.77757030       0.00794375
H       -0.66225468       2.44313916      -0.64384735
H        0.64322798       2.43503045       0.67728295
C       -1.78241447       0.00034974      -0.00472694
H       -2.45427497      -0.65498947       0.64260836
H       -2.43311707       0.67328779      -0.65473579
C       -0.91132561       0.90220522       0.91563759
C       -0.01476271      -0.02253852       1.78660255
H       -0.67934791      -0.69751639       2.42135241
H        0.63392994       0.61504881       2.47327442
C        0.01484550      -1.77751727      -0.01636693
H        0.67870853      -2.42144646      -0.68295456
H       -0.62264859      -2.45592969       0.64226336
C        1.78714474       0.01002794       0.00389507
H        2.44202412       0.67113390       0.66197326
H        2.45385902      -0.65136977      -0.64189061
C        0.91606151      -0.90478549       0.90901405
