126
Properties=species:S:1:pos:R:3 pbc="F F F"
C        1.79136060       1.79136060      -1.79136060
C        2.77171656       1.21061410      -2.59141688
C        3.57644822       2.02030726      -3.39887417
C        3.41051450       3.41496034      -3.41539763
C        2.41640987       3.97963886      -2.59986557
C        1.60978157       3.17241573      -1.79108059
C        4.26466912       4.23010219      -4.27311986
O        4.06135632       5.58057505      -4.25266074
N        4.97649581       6.13664204      -5.14216508
C        5.64709759       5.07380787      -5.61686546
N        5.22688645       3.86980891      -5.09162443
C        6.72221625       5.16214150      -6.60084556
C        7.11629841       6.39987015      -7.13413495
C        8.14510361       6.47554719      -8.07880856
C        8.78693636       5.31208617      -8.49603701
Br      10.17647486       5.41323343      -9.77340819
C        8.41136450       4.07455170      -7.97841100
C        7.38200622       4.00139566      -7.03410568
H        2.91882074       0.13340859      -2.59653744
H        4.33952545       1.55402297      -4.02107530
H        2.25476839       5.05629654      -2.58297311
H        0.84554241       3.63070562      -1.16811027
H        6.62486219       7.31920029      -6.81974000
H        8.43356857       7.44401630      -8.47936361
H        8.90885866       3.16359849      -8.30037535
H        7.09827360       3.02770171      -6.63829013
C       -1.79136060      -1.79136060      -1.79136060
C       -3.03180287      -1.32435954      -2.21758512
C       -3.83623591      -2.13327159      -3.02612216
C       -3.41084560      -3.41378462      -3.41624226
C       -2.15668315      -3.86517113      -2.97406002
C       -1.34964180      -3.05839836      -2.16523772
C       -4.27348017      -4.23019525      -4.26421575
O       -3.81213379      -5.46679320      -4.61566511
N       -4.79098056      -6.04593606      -5.41838630
C       -5.75143533      -5.10856535      -5.47777023
N       -5.45824846      -3.96450269      -4.76556864
C       -6.99655642      -5.26434799      -6.22429890
C       -7.26032894      -6.43246426      -6.95751031
C       -8.45429441      -6.57252985      -7.67263510
C       -9.39294733      -5.54374536      -7.65836685
Br     -11.00612331      -5.73162623      -8.62536695
C       -9.15055722      -4.37730042      -6.93646956
C       -7.95566542      -4.23942145      -6.22242069
H       -3.38273954      -0.33647342      -1.92955382
H       -4.80440205      -1.75634514      -3.35387652
H       -1.78916047      -4.85126601      -3.25361155
H       -0.38174194      -3.42759785      -1.83501851
H       -6.53731266      -7.24625332      -6.98023650
H       -8.63769770      -7.48491175      -8.23433903
H       -9.87955012      -3.57147690      -6.92180548
H       -7.77893721      -3.32231465      -5.66301358
C       -1.79136060       1.79136060       1.79136060
C       -1.40385487       3.09911413       2.07077853
C       -2.21397610       3.90457103       2.87708253
C       -3.41652566       3.41316652       3.41118029
C       -3.78754397       2.09095373       3.11741660
C       -2.97938354       1.28273741       2.31115693
C       -4.24040555       4.28212556       4.24536006
O       -5.40018905       3.75573791       4.73866514
N       -6.00837099       4.75917300       5.48775894
C       -5.16219272       5.79684335       5.37873484
N       -4.04819137       5.52911037       4.61101805
C       -5.38372899       7.09764016       6.00383416
C       -6.53725073       7.34905501       6.76399777
C       -6.74347468       8.59903890       7.35694578
C       -5.79568571       9.60627333       7.19310050
Br      -6.07405393      11.29606786       7.99299469
C       -4.64427126       9.37661002       6.44344592
C       -4.44046198       8.12589291       5.85115267
H       -0.47791860       3.50250572       1.66834245
H       -1.90040509       4.92638225       3.08783637
H       -4.71175737       1.67103401       3.51124665
H       -3.28637812       0.26216665       2.09581354
H       -7.28877841       6.57332003       6.90170404
H       -7.64401479       8.77241537       7.94051831
H       -3.90143556      10.15893675       6.31246018
H       -3.53648983       7.96028624       5.26748938
C        1.79136060      -1.79136060       1.79136060
C        1.30733443      -3.01186459       2.25454851
C        2.11749731      -3.81776249       3.06036985
C        3.41626238      -3.41374732       3.41086277
C        3.88383745      -2.17854347       2.93353339
C        3.07589740      -1.37013511       2.12724539
C        4.23673587      -4.28113995       4.25001536
O        5.49216879      -3.84185142       4.56057189
N        6.07619953      -4.82642242       5.35268098
C        5.12231590      -5.76753874       5.44791627
N        3.96164078      -5.45489686       4.77178216
C        5.28002910      -7.01492073       6.19025348
C        6.48056777      -7.31666346       6.85307227
C        6.62466539      -8.51535088       7.55944310
C        5.56724108      -9.42046341       7.60735504
Br       5.76143817     -11.04103638       8.56064193
C        4.36776733      -9.13939291       6.95716696
C        4.22620471      -7.94018716       6.25111570
H        0.30577273      -3.34678564       1.99620840
H        1.72778026      -4.77094943       3.41589402
H        4.88439963      -1.82796360       3.18167481
H        3.45847001      -0.41789665       1.76799164
H        7.31758375      -6.62084847       6.82537025
H        7.56311672      -8.72928436       8.06454739
H        3.53943356      -9.84202383       6.99137511
H        3.28356319      -7.73355497       5.74714729
C       -0.00445707       0.01189536      -1.78238275
H       -0.66409135       0.67374010      -2.43557963
H        0.65740317      -0.63156657      -2.45157240
C       -0.90989263      -0.90692880      -0.91072765
C        0.90977584       0.90977584      -0.90977584
C       -0.00465871       1.77757030       0.00794375
H       -0.66225468       2.44313916      -0.64384735
H        0.64322798       2.43503045       0.67728295
C       -1.78241447       0.00034974      -0.00472694
H       -2.45427497      -0.65498947       0.64260836
H       -2.43311707       0.67328779      -0.65473579
C       -0.91132561       0.90220522       0.91563759
C       -0.01476271      -0.02253852       1.78660255
H       -0.67934791      -0.69751639       2.42135241
H        0.63392994       0.61504881       2.47327442
C        0.01484550      -1.77751727      -0.01636693
H        0.67870853      -2.42144646      -0.68295456
H       -0.62264859      -2.45592969       0.64226336
C        1.78714474       0.01002794       0.00389507
H        2.44202412       0.67113390       0.66197326
H        2.45385902      -0.65136977      -0.64189061
C        0.91606151      -0.90478549       0.90901405
