185
Properties=species:S:1:pos:R:3 pbc="F F F"
C        0.00000000       0.00000000       0.00000000
C        0.88184510       0.88184510      -0.88184510
C        1.61212049       1.92159774      -0.30705369
C        2.42357102       2.72706824      -1.11102746
C        2.51148373       2.48423215      -2.48960173
C        1.75694051       1.45050786      -3.05908785
C        0.94500301       0.64634798      -2.25481869
C        3.37836195       3.31025172      -3.37863737
O        3.15974614       3.38083412      -4.58345448
N        4.45751345       3.91633669      -2.77800016
C        5.41157923       4.74738733      -3.52540533
H        4.85731895       5.23103654      -4.34123869
C        5.97354409       5.86826146      -2.61686076
C        6.71528769       5.37169546      -1.37146556
C        6.84592299       6.85504715      -3.39782853
C        6.47066056       3.83811618      -4.20310567
O        7.66850487       3.85660087      -3.93675672
N        5.94312850       3.00449936      -5.17019388
C        6.76444204       2.11468849      -5.96511442
C        7.12276324       0.82476044      -5.22319581
C        8.00174827      -0.06179627      -6.05697023
C        9.38346059      -0.11153062      -6.08423658
C        9.87382393      -1.07345829      -7.01770867
C        8.84257627      -1.71453220      -7.65558801
S        7.31312990      -1.18957822      -7.15190674
H        1.55100246       2.11634434       0.76147389
H        2.95840010       3.55247276      -0.64822689
H        1.80102286       1.26551984      -4.13038428
H        0.36908180      -0.15709013      -2.70701545
H        4.77909820       3.53519121      -1.89942698
H        5.10846256       6.44000942      -2.25109117
H        7.58050791       4.75161833      -1.62112396
H        6.05697654       4.78923187      -0.71952061
H        7.07898873       6.21953509      -0.77999863
H        7.79795604       6.41061098      -3.70242286
H        7.07526399       7.73139138      -2.78142067
H        6.32971934       7.20937310      -4.29597911
H        4.93237707       3.02009403      -5.31771233
H        7.67423759       2.65287607      -6.25712888
H        6.20216016       1.89439660      -6.87892383
H        6.20675120       0.29453454      -4.93331420
H        7.64052566       1.06271850      -4.28529384
H       10.01462971       0.51810495      -5.46684485
H       10.92263012      -1.27113260      -7.20141460
C        9.03574487      -2.73271933      -8.65537841
C        9.19752358      -3.58545105      -9.49270288
Br       9.45910607      -4.96424612     -10.84658572
C       -0.88184510      -0.88184510      -0.88184510
C       -0.92085900      -2.25833773      -0.66157520
C       -1.73064893      -3.06699903      -1.46401876
C       -2.50951567      -2.49515715      -2.48064480
C       -2.44595791      -1.11413840      -2.70643992
C       -1.63523583      -0.30643837      -1.90449548
C       -3.39869083      -3.32125326      -3.34730695
O       -3.74813168      -2.92256733      -4.45333571
N       -3.84656948      -4.50256494      -2.80271588
C       -4.74219610      -5.41493142      -3.52724437
H       -4.50941430      -5.32329943      -4.59688043
C       -4.46292065      -6.88102915      -3.11471651
C       -4.65919484      -7.17537798      -1.62387588
C       -5.25937643      -7.87631171      -3.96311052
C       -6.20993345      -4.93908280      -3.36286616
O       -7.08503170      -5.58377730      -2.79305347
N       -6.45972571      -3.71194995      -3.94614609
C       -7.77645751      -3.10841017      -3.95937727
C       -8.11828894      -2.41303868      -2.63939187
C       -9.50018948      -1.82718967      -2.66954308
C      -10.68433908      -2.41213351      -2.25969395
C      -11.80900728      -1.55509802      -2.45396902
C      -11.42872221      -0.35544852      -2.99946134
S       -9.76108692      -0.24184519      -3.27252631
H       -0.32110691      -2.71025944       0.12549344
H       -1.72104056      -4.14102950      -1.29702970
H       -3.02982377      -0.66174088      -3.50536233
H       -1.59905254       0.76493012      -2.08488470
H       -3.82531515      -4.59175351      -1.79664774
H       -3.40100983      -7.07086677      -3.32768655
H       -5.68222259      -6.97957933      -1.29144828
H       -3.98131057      -6.57868380      -1.00573464
H       -4.44054936      -8.22775133      -1.41022176
H       -6.32822717      -7.85115457      -3.73160813
H       -4.90832349      -8.89823242      -3.78152014
H       -5.13462888      -7.66946510      -5.03097758
H       -5.67658394      -3.21697474      -4.37662474
H       -8.51270656      -3.89030947      -4.18122651
H       -7.79076156      -2.39464027      -4.79007877
H       -7.37545314      -1.63431739      -2.42482940
H       -8.05040323      -3.12829671      -1.80983805
H      -10.74245184      -3.41235789      -1.84476977
H      -12.83016239      -1.81685705      -2.20589267
C      -12.35170646       0.70487527      -3.31157277
C      -13.12470576       1.59289645      -3.57296609
Br     -14.37458027       3.02875158      -3.99561697
C       -0.88184510       0.88184510       0.88184510
C       -1.14099701       0.50151081       2.19826410
C       -1.94373885       1.30907911       3.00884876
C       -2.47843876       2.50324111       2.50363775
C       -2.22883341       2.86431315       1.17338967
C       -1.42710234       2.05583127       0.36323608
C       -3.32571771       3.40036638       3.34116695
O       -4.10676338       4.19257129       2.82470006
N       -3.12302159       3.32881424       4.70001447
C       -3.86914462       4.16204817       5.65317909
H       -4.86583494       4.33772370       5.22603554
C       -4.06319410       3.40536138       6.99011083
C       -2.76248084       3.00299417       7.69297369
C       -4.97445179       4.17028186       7.95406501
C       -3.19471783       5.55525732       5.76190726
O       -2.68070322       5.99548143       6.78567781
N       -3.24420879       6.28417817       4.58943478
C       -2.72479914       7.63248478       4.48696103
C       -1.20609506       7.66531196       4.29931247
C       -0.69192443       9.07411405       4.23088375
C       -0.22616857       9.86392644       5.26607153
C        0.16777419      11.16239757       4.82345093
C       -0.01276450      11.30010976       3.47075781
S       -0.63458908       9.90848729       2.73238206
H       -0.72936429      -0.42234117       2.59884977
H       -2.16028679       0.97764970       4.02116327
H       -2.65498912       3.77790807       0.76402980
H       -1.23495107       2.34962624      -0.66557019
H       -2.24604535       2.94494942       5.02272164
H       -4.58387072       2.46761746       6.74807497
H       -2.14104034       3.86627464       7.94593522
H       -2.16642976       2.32535126       7.07394799
H       -2.98107076       2.47142214       8.62602955
H       -4.49131075       5.06724705       8.35243208
H       -5.24453520       3.53705750       8.80648335
H       -5.90357099       4.47187266       7.45962791
H       -3.66004191       5.84287111       3.76727041
H       -3.00997911       8.18231052       5.39195291
H       -3.23178786       8.10495070       3.63874203
H       -0.93023730       7.11120544       3.39315719
H       -0.71391754       7.14426464       5.13035581
H       -0.17592517       9.52778903       6.29586531
H        0.55646470      11.93943303       5.46994379
C        0.29357261      12.50607211       2.74590445
C        0.55012993      13.51606558       2.13883976
Br       0.96496143      15.14913959       1.15726750
C        0.88184510      -0.88184510       0.88184510
C        2.26855982      -0.82771876       0.74449335
C        3.07803168      -1.63012311       1.55351193
C        2.49847509      -2.47928372       2.50755881
C        1.10371102      -2.54096871       2.62185650
C        0.29502017      -1.73927468       1.81187483
C        3.32785106      -3.33857387       3.40082610
O        2.85722540      -4.34350544       3.92330389
N        4.60684094      -2.89644158       3.64856778
C        5.53751120      -3.62529023       4.52157045
H        5.30296349      -4.69470859       4.43192209
C        6.99473872      -3.42683717       4.03709042
C        7.47046649      -1.97044738       4.01753483
C        7.98174301      -4.29872186       4.81833380
C        5.26434053      -3.24629416       6.00124772
O        6.06857201      -2.66774507       6.72554539
N        4.02081197      -3.64547860       6.45153117
C        3.58405505      -3.44254098       7.81764891
C        3.08247819      -2.01858084       8.06966047
C        2.66927041      -1.82743242       9.50021941
C        3.43481832      -1.36597838      10.55536985
C        2.70498404      -1.33163175      11.78145852
C        1.41602520      -1.76510344      11.60250343
S        1.07152927      -2.20128406      10.00264509
H        2.72672596      -0.17106950       0.00807744
H        4.15463829      -1.59704183       1.40741963
H        0.64185955      -3.21097586       3.34409158
H       -0.78598083      -1.79085955       1.91412840
H        4.80119512      -1.91695350       3.49556778
H        7.02981682      -3.77504320       2.99470313
H        7.43771284      -1.50786382       5.00767354
H        6.86621925      -1.36138406       3.33812570
H        8.50533225      -1.91132519       3.66186500
H        8.11199793      -3.95151007       5.84748188
H        8.96698544      -4.28186899       4.33922161
H        7.64685083      -5.34068245       4.84753827
H        3.39057385      -4.09480711       5.78480247
H        4.42104642      -3.67680966       8.48638646
H        2.79160129      -4.17378598       8.01009333
H        2.24703220      -1.79260145       7.39496629
H        3.86975861      -1.29445127       7.82432812
H        4.47368875      -1.07196128      10.45392948
H        3.11431834      -1.00813059      12.73046319
C        0.44832499      -1.84413268      12.66594628
C       -0.36212393      -1.91031967      13.55657966
Br      -1.67255129      -2.01733843      14.99665852
