145
Properties=species:S:1:pos:R:3 pbc="F F F"
C        0.00000000       0.00000000       0.00000000
C        0.87064083       0.87064083      -0.87064083
C        1.85121776       1.75358351      -0.38486820
C        2.44502688       2.37934995      -1.47952893
C        3.50864466       3.37209541      -1.52045234
O        4.02706820       3.78119223      -2.56073228
N        3.90955826       3.86492578      -0.29300454
N        4.94131674       4.88253268      -0.25626519
S        5.14489670       5.77587098       1.15498867
O        3.97087796       6.60663130       1.31857178
O        5.56090740       4.86149445       2.19685849
C        6.50937538       6.82305408       0.72815467
C        6.27052959       8.02756159       0.06526129
C        7.34575244       8.85900960      -0.24802003
C        8.64947845       8.49323515       0.11054543
C        8.89609962       7.28943356       0.79325258
C       10.27912489       6.86826104       1.20808424
C        7.80769111       6.45536030       1.09953469
N        1.81421015       1.86021558      -2.60269360
C        2.09587227       2.22112222      -3.97797050
C        0.85774958       0.94691512      -2.23572079
H        2.09924803       1.90587746       0.65748367
H        3.46103893       3.61363086       0.58212717
H        5.31799979       5.22434525      -1.14718719
H        5.25942268       8.32876406      -0.20271515
H        7.15873589       9.79743704      -0.76623254
H       10.26173717       5.91920481       1.75485865
H       10.72498926       7.61551138       1.87193255
H       10.91550182       6.72720772       0.32856234
H        7.97241527       5.52032523       1.63383656
H        1.42391071       1.67158433      -4.64280301
H        3.13030967       1.95083604      -4.20312306
H        1.92649006       3.29378749      -4.09751383
H        0.25446034       0.43175032      -2.97198531
C        9.71201273       9.39850588      -0.24315756
C       10.60188519      10.15667012      -0.53938381
Br      12.04073369      11.38255757      -1.01835660
C       -0.87064083      -0.87064083      -0.87064083
C       -0.38442283      -1.84447587      -1.76077077
C       -1.47922883      -2.44059459      -2.38408233
C       -1.51982794      -3.49952391      -3.38184056
O       -2.55955697      -4.02105275      -3.78838300
N       -0.29287202      -3.89196911      -3.88264744
N       -0.25608877      -4.91853566      -4.90549018
S        1.15172977      -5.11078450      -5.80672429
O        1.30546576      -3.93191799      -6.63248525
O        2.20011522      -5.52613532      -4.89952325
C        0.72643550      -6.47220093      -6.85850937
C        0.05645683      -6.23072306      -8.05856366
C       -0.25564253      -7.30338859      -8.89375095
C        0.11110341      -8.60710982      -8.53616176
C        0.80093000      -8.85626185      -7.33694875
C        1.22460212     -10.23927481      -6.92462899
C        1.10597863      -7.77045831      -6.49903704
N       -2.60290110      -1.81786721      -1.85635102
C       -3.97854181      -2.10452598      -2.21189719
C       -2.23612659      -0.86409778      -0.94016111
H        0.65836931      -2.08662142      -1.91938971
H        0.58127825      -3.44038277      -3.63343810
H       -1.14682667      -5.29792168      -5.24478389
H       -0.21795054      -5.21948422      -8.35346713
H       -0.77937969      -7.11433006      -9.82869572
H        1.77595127     -10.22384544      -5.97818917
H        1.88693964     -10.67819823      -7.67730949
H        0.34891414     -10.88065828      -6.78240306
H        1.64567883      -7.93712914      -5.56745363
H       -4.64394489      -1.43854691      -1.65580624
H       -4.19728947      -3.14137143      -1.94560787
H       -4.10419399      -1.93048058      -3.28311680
H       -2.97279272      -0.26697269      -0.41843056
C       -0.24184231      -9.66692439      -9.44490946
C       -0.53743436     -10.55451910     -10.20598566
Br      -1.01538170     -11.98968467     -11.43658150
C       -0.87064083       0.87064083       0.87064083
C       -1.96713489       1.61758533       0.40494925
C       -2.52122118       2.28981495       1.49286963
C       -3.66542535       3.18773178       1.54803528
O       -4.12915619       3.64638386       2.59345266
N       -4.21375089       3.52793178       0.32580590
N       -5.33529197       4.44598276       0.29883988
S       -5.74089710       5.18315932      -1.15827740
O       -4.66773184       6.09209958      -1.50089394
O       -6.15711173       4.14345825      -2.07502663
C       -7.15572427       6.14542294      -0.69687241
C       -6.97462994       7.42247245      -0.16427249
C       -8.09207843       8.18480109       0.17590255
C       -9.38180449       7.67735352      -0.02698984
C       -9.57236708       6.39849310      -0.57857957
C      -10.94038647       5.82408187      -0.82516665
C       -8.44099699       5.63533738      -0.91281764
N       -1.75127356       1.93339640       2.59244936
C       -1.94708342       2.39567999       3.95220157
C       -0.74857784       1.07473727       2.21707037
H       -2.31625592       1.65028011      -0.61889421
H       -3.82000261       3.23526124      -0.56272124
H       -5.66487707       4.83604307       1.18861209
H       -5.97687747       7.83246620      -0.01844177
H       -7.94991371       9.17998893       0.59250283
H      -10.88122955       4.83311420      -1.28826041
H      -11.50898083       6.46540192      -1.50581467
H      -11.48351365       5.71194218       0.11869136
H       -8.56273631       4.64391459      -1.34774696
H       -1.17256329       1.96985660       4.59587815
H       -2.92881785       2.06036448       4.29508645
H       -1.86892482       3.48533804       3.96352852
H       -0.03929532       0.68381940       2.93508126
C      -10.49010588       8.51776540       0.34580490
C      -11.41830829       9.22161034       0.65802049
Br     -12.91913308      10.35966809       1.16284670
C        0.87064083      -0.87064083       0.87064083
C        0.40910715      -1.59975040       1.98081192
C        1.49523602      -2.27966451       2.52900522
C        1.55255998      -3.16832349       3.68030894
O        2.55803783      -3.79829259       4.01266229
N        0.38842728      -3.25932303       4.41973827
N        0.37970490      -4.09911955       5.60129017
S       -0.86000344      -3.90374002       6.72204244
O       -0.68827810      -2.60645709       7.34075849
O       -2.10184707      -4.25850212       6.06888830
C       -0.46397455      -5.14642850       7.92182083
C        0.43533742      -4.85049974       8.94699274
C        0.72614121      -5.82460190       9.90203896
C        0.11184252      -7.08184459       9.83848106
C       -0.80777781      -7.38161828       8.81844014
C       -1.49893406      -8.71414649       8.72408926
C       -1.09024158      -6.39638137       7.85737693
N        2.58847995      -1.95042282       1.73821655
C        3.94684714      -2.41864737       1.92947048
C        2.21247324      -1.09445627       0.73345598
H       -0.61369839      -1.62799312       2.33334709
H       -0.43865939      -2.70310910       4.22809290
H        1.24957032      -4.57456823       5.86539368
H        0.90512168      -3.87092393       9.01485628
H        1.42863910      -5.59345770      10.70030867
H       -2.19982199      -8.74317553       7.88272981
H       -2.07625771      -8.91226599       9.63255981
H       -0.76761861      -9.51368901       8.56807680
H       -1.80433992      -6.60242896       7.06081490
H        4.59565333      -1.97082096       1.17182376
H        3.95812109      -3.50574704       1.82040065
H        4.28377832      -2.11165536       2.92235769
H        2.92640084      -0.72105328       0.01074185
C        0.45726523      -8.03966635      10.85674460
C        0.74655674      -8.84184207      11.70954031
Br       1.21431665     -10.13889237      13.08843885
