133
Properties=species:S:1:pos:R:3 pbc="F F F"
C        0.00000000       0.00000000       0.00000000
C        0.87075735       0.87075735      -0.87075735
C        0.38802754       1.88928182      -1.71098857
C        1.48035536       2.47146189      -2.35194468
C        1.51867214       3.56513810      -3.31205385
O        2.55600080       4.09062319      -3.71693351
N        0.28473681       3.98363087      -3.77273363
N        0.21808389       5.05429892      -4.74601490
S       -1.24144163       5.32365115      -5.53888981
O       -1.43433382       4.23866762      -6.47684179
O       -2.23682377       5.61992077      -4.53019314
C       -0.89996572       6.79668105      -6.45785374
C       -1.24830323       8.04095519      -5.92214430
C       -1.01611343       9.19792051      -6.66546532
C       -0.44611463       9.10787446      -7.93717453
C       -0.11350251       7.85911498      -8.46514960
C       -0.34102255       6.69522264      -7.73495871
N        2.59968059       1.79482870      -1.88496994
C        3.97088962       2.04403136      -2.28316990
C        2.23216369       0.82373221      -0.98687046
H       -0.65071991       2.17009765      -1.82417135
H       -0.58685314       3.53395355      -3.50984476
H        1.09278430       5.45891888      -5.09502933
H       -1.70551991       8.11608088      -4.93695483
H       -1.28657230      10.16992956      -6.25868821
H       -0.27334369      10.01536354      -8.51119251
H       -0.09665863       5.72272320      -8.15679260
H        4.62732954       1.31551958      -1.79946056
H        4.24647826       3.05186112      -1.96415684
H        4.04476547       1.93237114      -3.36760149
H        2.96548552       0.18659470      -0.50983907
C        0.46637246       7.77365040      -9.78045976
C        0.95201775       7.70207381     -10.88203202
Br       1.73726511       7.58634051     -12.66318119
C       -0.87075735      -0.87075735      -0.87075735
C       -2.02882511      -1.53269883      -0.42677399
C       -2.56336853      -2.23426402      -1.50612938
C       -3.75415147      -3.06914574      -1.57256688
O       -4.21023611      -3.53718361      -2.61613778
N       -4.35492607      -3.33046517      -0.35571006
N       -5.53584335      -4.16818496      -0.31436940
S       -6.05358686      -4.74620899       1.17869653
O       -5.11632130      -5.76504490       1.60019061
O       -6.33136845      -3.59916982       2.01724813
C       -7.58130304      -5.53627556       0.76300954
C       -8.78221323      -4.83222423       0.89964120
C       -9.98858450      -5.46969028       0.61100239
C       -9.99159239      -6.80300896       0.19566700
C       -8.78701135      -7.49801608       0.07426536
C       -7.57488255      -6.87481319       0.36053694
N       -1.71936167      -1.98062575      -2.57949181
C       -1.86616684      -2.51186995      -3.92005409
C       -0.69231988      -1.15419053      -2.19625595
H       -2.43098227      -1.48931231       0.57674550
H       -3.97296770      -3.01437274       0.53039527
H       -5.88336187      -4.57448319      -1.18888745
H       -8.78685739      -3.79684877       1.23619037
H      -10.92794955      -4.93145321       0.71735729
H      -10.93775159      -7.29299026      -0.02247052
H       -6.63964347      -7.42482323       0.28160952
H       -1.01858598      -2.19158813      -4.53213557
H       -2.79288542      -2.12210484      -4.34750597
H       -1.87851533      -3.60298713      -3.86323564
H        0.07252263      -0.83995029      -2.89449163
C       -8.79872745      -8.87506261      -0.34669255
C       -8.80853968     -10.02833909      -0.69924480
Br      -8.82440523     -11.89308961      -1.26929197
C       -0.87075735       0.87075735       0.87075735
C       -0.40850863       1.59870360       1.98108571
C       -1.49348855       2.27994366       2.53032973
C       -1.54443904       3.17079009       3.68063495
O       -2.53589902       3.82713898       4.00051950
N       -0.38416094       3.22765345       4.42928691
N       -0.34110267       4.07158009       5.60571495
S        0.93859110       3.87855028       6.68114014
O        0.73270407       2.63024590       7.38363377
O        2.16321587       4.12664718       5.94985882
C        0.67164555       5.20611741       7.82009720
C        1.33928819       6.42095776       7.63312669
C        1.15961167       7.45217618       8.55470789
C        0.32349906       7.26495023       9.65748319
C       -0.32816120       6.04378443       9.83881643
C       -0.15700069       5.00460960       8.92754851
N       -2.58753296       1.95156779       1.74037848
C       -3.94681006       2.41518302       1.93609779
C       -2.21206336       1.09706799       0.73363502
H        0.61457699       1.62602236       2.33210372
H        0.43088899       2.65479113       4.23304302
H       -1.18550162       4.58671841       5.87451248
H        2.00299164       6.56780574       6.78270169
H        1.67706132       8.39949462       8.41961217
H        0.19348612       8.07338350      10.37331497
H       -0.65268948       4.04858690       9.08158080
H       -4.60157432       1.94066029       1.20007507
H       -3.96659219       3.49859668       1.79730736
H       -4.26984034       2.13365713       2.94124064
H       -2.92611963       0.72565752       0.01014213
C       -1.18230767       5.85543601      10.98273893
C       -1.89765533       5.69769421      11.94077403
Br      -3.05431200       5.44263906      13.48983575
C        0.87075735      -0.87075735       0.87075735
C        2.11853190      -0.48142787       1.38833816
C        2.62118994      -1.54135708       2.14121490
C        3.86866419      -1.64233377       2.88486613
O        4.15373076      -2.58171189       3.62811486
N        4.75277233      -0.59809794       2.69023104
N        6.03082488      -0.61593695       3.37163588
S        7.21614484       0.47040795       2.87536244
O        7.70968692       0.02018233       1.59167100
O        6.67957696       1.80510206       3.03881523
C        8.48656472       0.21147877       4.07948311
C        8.55102705       1.04049140       5.20426060
C        9.57744693       0.86148800       6.13131346
C       10.53458431      -0.13515089       5.92919915
C       10.46564087      -0.94843986       4.79668134
C        9.44723230      -0.78019234       3.86173416
N        1.66705241      -2.54762239       2.06480443
C        1.75900193      -3.85476385       2.68432510
C        0.60496142      -2.14303280       1.29477214
H        2.59108642       0.47920203       1.23166470
H        4.57942782       0.16090939       2.03842673
H        6.26398309      -1.42078097       3.96196846
H        7.81554138       1.82796475       5.35993916
H        9.63785070       1.50335015       7.00754492
H       11.33402982      -0.26390307       6.65527947
H        9.40687517      -1.40432669       2.97165531
H        0.89084812      -4.45431126       2.39715029
H        1.76957204      -3.72405218       3.76887200
H        2.66920765      -4.34496502       2.33056544
H       -0.24382665      -2.79012464       1.11562130
C       11.46089177      -1.96861645       4.59097439
C       12.29441441      -2.82301435       4.41869482
Br      13.64215001      -4.20450349       4.14013332
