125
Properties=species:S:1:pos:R:3 pbc="F F F"
C        0.00000000       0.00000000       0.00000000
C        0.87075735       0.87075735      -0.87075735
C        0.38802754       1.88928182      -1.71098857
C        1.48035536       2.47146189      -2.35194468
C        1.51867214       3.56513810      -3.31205385
O        2.55600080       4.09062319      -3.71693351
N        0.28473681       3.98363087      -3.77273363
N        0.21808389       5.05429892      -4.74601490
S       -1.24144163       5.32365115      -5.53888981
O       -1.43433382       4.23866762      -6.47684179
O       -2.23682377       5.61992077      -4.53019314
C       -0.89996572       6.79668105      -6.45785374
C       -1.24830323       8.04095519      -5.92214430
C       -1.01611343       9.19792051      -6.66546532
C       -0.44611463       9.10787446      -7.93717453
C       -0.11350251       7.85911498      -8.46514960
Br       0.64770849       7.74692428     -10.19177794
C       -0.34102255       6.69522264      -7.73495871
N        2.59968059       1.79482870      -1.88496994
C        3.97088962       2.04403136      -2.28316990
C        2.23216369       0.82373221      -0.98687046
H       -0.65071991       2.17009765      -1.82417135
H       -0.58685314       3.53395355      -3.50984476
H        1.09278430       5.45891888      -5.09502933
H       -1.70551991       8.11608088      -4.93695483
H       -1.28657230      10.16992956      -6.25868821
H       -0.27334369      10.01536354      -8.51119251
H       -0.09665863       5.72272320      -8.15679260
H        4.62732954       1.31551958      -1.79946056
H        4.24647826       3.05186112      -1.96415684
H        4.04476547       1.93237114      -3.36760149
H        2.96548552       0.18659470      -0.50983907
C       -0.87075735      -0.87075735      -0.87075735
C       -1.12251621      -2.23321517      -0.63256655
C       -1.96583502      -2.69712412      -1.64080279
C       -2.52312624      -4.02622774      -1.84651011
O       -3.36822166      -4.29442822      -2.70090761
N       -2.02115800      -5.00734125      -1.01260205
N       -2.49885111      -6.36765637      -1.15189023
S       -1.65138344      -7.59570869      -0.37400719
O       -0.40711622      -7.78612567      -1.08793370
O       -1.65733400      -7.29896658       1.04301044
C       -2.68109425      -9.00401245      -0.66946236
C       -3.62224173      -9.38513588       0.29258135
C       -4.40433392     -10.51944134       0.07650287
C       -4.23973561     -11.26884687      -1.09035188
C       -3.28897594     -10.88433560      -2.03745053
Br      -3.06630353     -11.91141595      -3.60869123
C       -2.49988777      -9.75486584      -1.83440519
N       -2.20765350      -1.60623593      -2.46558981
C       -3.02487043      -1.61054363      -3.66267681
C       -1.54441372      -0.49787542      -2.00047723
H       -0.73286730      -2.80791155       0.19722976
H       -1.27999881      -4.83718957      -0.33975679
H       -3.17930963      -6.57856345      -1.88885944
H       -3.74531463      -8.81253636       1.21033519
H       -5.13669773     -10.82567818       0.82033044
H       -4.85094634     -12.15459860      -1.24766742
H       -1.74799349      -9.46835317      -2.56651052
H       -2.97795766      -0.62674560      -4.13760642
H       -4.05642883      -1.82903037      -3.37703703
H       -2.63136619      -2.36266471      -4.35070721
H       -1.60808949       0.45527901      -2.50910881
C       -0.87075735       0.87075735       0.87075735
C       -2.12694654       0.48839921       1.37295218
C       -2.62675591       1.54593985       2.13106617
C       -3.88019432       1.65172816       2.86394160
O       -4.16346762       2.58676481       3.61332507
N       -4.77215053       0.61774811       2.65120266
N       -6.05635438       0.64127664       3.32076669
S       -7.24704278      -0.42914590       2.80320245
O       -7.72421692       0.03769963       1.51925904
O       -6.72454346      -1.77031435       2.95906103
C       -8.52629379      -0.16950759       3.99778287
C       -8.60911648      -1.00835471       5.11403449
C       -9.64252141      -0.82834751       6.03309849
C      -10.58834885       0.17912622       5.83145928
C      -10.50111941       1.00228113       4.70736153
Br     -11.79241640       2.35621961       4.43777470
C       -9.47555001       0.83317828       3.78043051
N       -1.66257345       2.54382594       2.07307984
C       -1.74814067       3.84592768       2.70402252
C       -0.59709155       2.13644775       1.30922706
H       -2.60696205      -0.46622130       1.20280833
H       -4.59976609      -0.13673421       1.99391329
H       -6.28753856       1.44273083       3.91646312
H       -7.88252736      -1.80415533       5.26914377
H       -9.71719045      -1.47777519       6.90263022
H      -11.39337255       0.30862351       6.55121630
H       -9.42096090       1.46519839       2.89669789
H       -0.87174780       4.43991377       2.43064811
H       -1.77016751       3.70518743       3.78714129
H       -2.65034431       4.34798325       2.34641054
H        0.25936230       2.77714687       1.14413472
C        0.87075735      -0.87075735       0.87075735
C        1.03523218      -0.69697251       2.25609324
C        1.90612806      -1.68485992       2.71277395
C        2.39259070      -1.94283089       4.06044250
O        3.05872756      -2.92928000       4.37554994
N        2.06889954      -0.97737408       4.99482768
N        2.52382930      -1.13345910       6.36110931
S        2.41448231       0.18907530       7.39569232
O        3.42783457       1.14102207       6.99436310
O        1.02030375       0.57295263       7.46593902
C        2.89550618      -0.51125009       8.94781279
C        1.91358224      -0.96822022       9.83299380
C        2.29232692      -1.48192451      11.07302096
C        3.64278973      -1.53083186      11.42531277
C        4.61224552      -1.06102405      10.53749249
Br       6.43680920      -1.12163114      11.02797037
C        4.24867281      -0.54399540       9.29649058
N        2.24818266      -2.43568377       1.59561280
C        3.14875018      -3.57126727       1.57807342
C        1.62154759      -1.94356097       0.47765780
H        0.55630032       0.06694287       2.85419164
H        1.57579074      -0.12149509       4.75965934
H        3.10339928      -1.94487287       6.59846036
H        0.85841521      -0.91987702       9.56922356
H        1.53576042      -1.83676270      11.76952235
H        3.92798124      -1.92871349      12.39651762
H        5.00560823      -0.16275143       8.61449752
H        3.27478034      -3.91858413       0.54894520
H        2.71108719      -4.36975025       2.18165879
H        4.11694357      -3.25451554       1.97327899
H        1.76184961      -2.39565086      -0.49558118
