170
Properties=species:S:1:pos:R:3 pbc="F F F"
C        0.86940802       7.14875979      -1.57397994
O        1.47907456       5.85349323      -1.55905738
C        2.00032072       5.42928934      -2.73273247
O        2.08208261       6.06952678      -3.76653160
C        2.36583764       3.99500545      -2.64259376
C        1.56335122       3.16430678      -1.83763477
C        1.79115207       1.79115207      -1.79115207
C        2.80885959       1.22054685      -2.54827091
C        3.61285388       2.03159816      -3.35218916
C        3.39362341       3.41977135      -3.40658529
S        4.55136840       4.41274751      -4.32099685
O        5.02581924       5.44825804      -3.43140775
O        5.49241961       3.52168245      -4.97353556
N        3.63208974       5.11261360      -5.55024532
N        4.35286265       5.77406966      -6.64182828
C        3.71309952       6.79118521      -7.32556160
O        2.54096469       7.08521348      -7.08474610
C        4.50782408       7.45523992      -8.34236042
C        5.89078188       7.54007704      -8.47656951
C        6.16258026       8.30224827      -9.62765694
Br       7.88058769       8.70917819     -10.24784304
C        4.97363570       8.68262488     -10.18816828
N        3.97198861       8.18357423      -9.39465420
C        2.55882171       8.37166411      -9.65750367
H       -0.05309686       7.08678796      -0.98973667
H        0.60718175       7.49196564      -2.57983696
H        1.54045870       7.86616486      -1.09550060
H        0.74663546       3.58732295      -1.25465524
H        2.99079132       0.14863609      -2.51326541
H        4.42043667       1.57093973      -3.91998600
H        2.82020526       5.66644459      -5.20826284
H        5.30939682       5.48463657      -6.82503056
H        6.62567028       7.11655571      -7.80462999
H        4.75679604       9.26804902     -11.07211022
H        2.08344208       7.38987548      -9.72482326
H        2.43260207       8.90152772     -10.60524385
H        2.13157747       8.96663754      -8.84668978
C       -4.44259415       0.69190774      -5.84146134
O       -3.62904350      -0.19568364      -5.06689803
C       -4.23860211      -1.31335658      -4.61038384
O       -5.37251917      -1.67994574      -4.86567608
C       -3.37047521      -2.00551642      -3.62744521
C       -2.55250716      -1.21037490      -2.80241071
C       -1.79115207      -1.79115207      -1.79115207
C       -1.83703449      -3.16454065      -1.57610220
C       -2.64432789      -3.96636683      -2.38594648
C       -3.41678272      -3.39189913      -3.41129821
S       -4.29511159      -4.48349864      -4.50650253
O       -3.91054866      -4.13864152      -5.85629486
O       -4.12513542      -5.84058035      -4.02192186
N       -5.92122913      -4.09861852      -4.27510101
N       -6.91992438      -5.01396078      -4.83487542
C       -8.16230029      -4.50416107      -5.16338496
O       -8.45762643      -3.33277504      -4.92052280
C       -9.07814328      -5.44415428      -5.78312686
C       -8.81159025      -6.62437836      -6.47145981
C      -10.04303173      -7.16692110      -6.88253264
Br     -10.22997755      -8.75800922      -7.84962215
C      -11.04623223      -6.33731328      -6.46088335
N      -10.45587353      -5.28298622      -5.81135728
C      -11.18942598      -4.18452264      -5.21404087
H       -4.20934289       1.71323187      -5.52731675
H       -5.51585393       0.53293115      -5.69606156
H       -4.18655315       0.58248442      -6.89805543
H       -2.51938405      -0.13049069      -2.93873891
H       -1.24252249      -3.62190645      -0.78826387
H       -2.64974121      -5.04284859      -2.21877260
H       -6.14795813      -3.09801334      -4.44894121
H       -6.64434781      -5.97848943      -4.99622670
H       -7.83299759      -7.03901970      -6.67483869
H      -12.12050506      -6.40251370      -6.57393653
H      -10.92090876      -4.12066324      -4.15656883
H      -12.26253304      -4.37172601      -5.30511459
H      -10.93243942      -3.26574214      -5.74672322
C       -1.24298263       7.16947527       1.17968984
O       -1.76492575       5.84060894       1.28609048
C       -2.18265064       5.46371625       2.51597565
O       -2.24220775       6.16492668       3.51100655
C       -2.45690520       4.00662678       2.53990487
C       -1.65269717       3.17588111       1.73671449
C       -1.79115207       1.79115207       1.79115207
C       -2.71950067       1.20983042       2.64834625
C       -3.52396890       2.02084731       3.45182499
C       -3.39455403       3.42052433       3.40490170
S       -4.55650992       4.39800791       4.33059493
O       -5.15327649       5.34049478       3.41171377
O       -5.39373313       3.49538436       5.09852013
N       -3.61097497       5.23398296       5.44999073
N       -4.30469356       5.92033938       6.54372765
C       -3.69260264       7.01855417       7.11868951
O       -2.55990247       7.36840110       6.78262069
C       -4.46479884       7.69791735       8.14270823
C       -5.83927805       7.70513209       8.36301829
C       -6.08887782       8.52372298       9.47988468
Br      -7.78813873       8.86311894      10.18635126
C       -4.89523638       9.01388335       9.93530913
N       -3.91403292       8.52657925       9.10960486
C       -2.50286950       8.81943733       9.26568266
H       -0.35660882       7.12641230       0.54040665
H       -0.94197607       7.59447126       2.14253701
H       -1.98875927       7.81026021       0.70310469
H       -0.90383828       3.60927885       1.07549653
H       -2.83159041       0.12871370       2.69238871
H       -4.26217642       1.54952372       4.09966226
H       -2.86060450       5.81337293       5.02093526
H       -5.22658642       5.58467529       6.80780224
H       -6.58482887       7.19289704       7.76913007
H       -4.66312993       9.66915545      10.76466991
H       -1.95999740       7.87583759       9.36230583
H       -2.35333582       9.41797390      10.16806392
H       -2.16749391       9.38465542       8.39275544
C        4.58474716       0.71973831       5.72713889
O        3.73522073      -0.16619298       4.99021146
C        4.31017857      -1.30670839       4.54545558
O        5.44126410      -1.69269243       4.78418447
C        3.40572183      -2.00060625       3.59710877
C        2.58710305      -1.20560680       2.77258292
C        1.79115207      -1.79115207       1.79115207
C        1.80251122      -3.16955459       1.60561152
C        2.60997948      -3.97132815       2.41533357
C        3.41720019      -3.39202983       3.41075004
S        4.29571113      -4.47883056       4.51057108
O        3.94867810      -4.09639638       5.86041055
O        4.08570230      -5.84199280       4.05994253
N        5.92426148      -4.13514001       4.23554717
N        6.91504631      -5.06002721       4.79368706
C        8.17513781      -4.57085785       5.08385066
O        8.49031332      -3.41182984       4.80878110
C        9.08390366      -5.51725164       5.70426912
C        8.80715650      -6.67610354       6.42416838
C       10.03535754      -7.23674199       6.82038594
Br      10.20916460      -8.81026248       7.81818185
C       11.04670919      -6.43886870       6.35885097
N       10.46508821      -5.38604544       5.69908339
C       11.20885492      -4.31728082       5.06185376
H        4.36677131       1.73893274       5.39558920
H        5.65083115       0.53393280       5.56208599
H        4.34984695       0.63891578       6.79119299
H        2.58039866      -0.12255506       2.88565993
H        1.18094122      -3.63060249       0.84114910
H        2.58837827      -5.05103369       2.27195043
H        6.17639811      -3.13626874       4.38224583
H        6.62228621      -6.01449934       4.98227839
H        7.82455572      -7.06448076       6.65781950
H       12.12155732      -6.52536855       6.45002942
H       10.91844234      -4.27040833       4.00929015
H       12.27940931      -4.52617527       5.13378906
H       10.98367895      -3.38171716       5.57950867
C       -0.00445707       0.01189536      -1.78238275
H       -0.66409135       0.67374010      -2.43557963
H        0.65740317      -0.63156657      -2.45157240
C       -0.90989263      -0.90692880      -0.91072765
C        0.90977584       0.90977584      -0.90977584
C       -0.00465871       1.77757030       0.00794375
H       -0.66225468       2.44313916      -0.64384735
H        0.64322798       2.43503045       0.67728295
C       -1.78241447       0.00034974      -0.00472694
H       -2.45427497      -0.65498947       0.64260836
H       -2.43311707       0.67328779      -0.65473579
C       -0.91132561       0.90220522       0.91563759
C       -0.01476271      -0.02253852       1.78660255
H       -0.67934791      -0.69751639       2.42135241
H        0.63392994       0.61504881       2.47327442
C        0.01484550      -1.77751727      -0.01636693
H        0.67870853      -2.42144646      -0.68295456
H       -0.62264859      -2.45592969       0.64226336
C        1.78714474       0.01002794       0.00389507
H        2.44202412       0.67113390       0.66197326
H        2.45385902      -0.65136977      -0.64189061
C        0.91606151      -0.90478549       0.90901405
