89
Properties=species:S:1:pos:R:3 pbc="F F F"
C        0.00000000       0.00000000       0.00000000
N        1.48784387       5.11421595      -6.91085127
C        0.19307040       4.72398675      -6.84559600
S       -0.90025857       5.12232343      -8.02658781
N       -0.14373411       3.97961518      -5.74955481
N        0.79246637       3.61996959      -4.81555551
C        0.37127326       2.86631827      -3.85003344
C       -1.03921949       2.32326651      -3.59840432
O       -2.00926057       2.55380812      -4.28814037
N       -0.93783307       1.54870936      -2.46547734
C        0.37103175       1.54588533      -1.97815370
C        0.87964448       0.87964448      -0.87964448
C        2.24132707       1.02293372      -0.59118560
C        3.05961717       1.83018357      -1.40642431
Br       4.89785469       1.99888654      -0.99129980
C        2.54626183       2.50265109      -2.51623705
C        1.19996489       2.33661876      -2.77236241
H        2.08751785       4.86121840      -6.13653437
H        1.82985209       5.68057285      -7.67270749
H       -1.11140355       3.65600219      -5.66258563
H       -1.71575659       1.04785996      -2.05809055
H        2.67343787       0.50708952       0.26433850
H        3.16559100       3.12229059      -3.15612351
N       -6.32905944      -5.85774728      -1.32610437
C       -6.20956588      -5.53683474      -0.01625252
S       -7.11905184      -6.28215654       1.15255572
N       -5.28940249      -4.56769093       0.27165754
N       -4.51338105      -4.00614927      -0.70846116
C       -3.63599273      -3.13986282      -0.31176943
C       -3.34727038      -2.64421628       1.10903532
O       -3.94445810      -2.99303487       2.10480506
N       -2.29908957      -1.76135333       0.98408926
C       -1.90019513      -1.64551657      -0.34935909
C       -0.87964448      -0.87964448      -0.87964448
C       -0.65982925      -0.93520699      -2.26041017
C       -1.46690874      -1.75288432      -3.07643199
Br      -1.14009975      -1.80871986      -4.93922143
C       -2.49726702      -2.52689484      -2.54098812
C       -2.68400391      -2.44954113      -1.17540102
H       -5.76449480      -5.33668586      -1.98408997
H       -6.99268570      -6.54964230      -1.64080442
H       -5.15993711      -4.29838820       1.25114103
H       -1.87957595      -1.27600205       1.76538407
H        0.13951035      -0.34755886      -2.70814039
H       -3.12227790      -3.16554536      -3.15618184
N       -1.48791350       5.11400580       6.91099178
C       -0.19315262       4.72372896       6.84577157
S        0.90014602       5.12197752       8.02682117
N        0.14366552       3.97938681       5.74971459
N       -0.79251271       3.61981370       4.81566507
C       -0.37131138       2.86618347       3.85013012
C        1.03917007       2.32308680       3.59853461
O        2.00919336       2.55356410       4.28831718
N        0.93779754       1.54857748       2.46557369
C       -0.37104850       1.54582305       1.97819922
C       -0.87964448       0.87964448       0.87964448
C       -2.24131034       1.02299766       0.59113839
C       -3.05960075       1.83024763       1.40637667
Br      -4.89781564       1.99903792       0.99118747
C       -2.54626236       2.50265225       2.51623536
C       -1.19998178       2.33655783       2.77240645
H       -2.08756727       4.86106150       6.13664185
H       -1.82992929       5.68034644       7.67285670
H        1.11132578       3.65573970       5.66277036
H        1.71571744       1.04771373       2.05819764
H       -2.67340797       0.50720336      -0.26442244
H       -3.16559231       3.12229095       3.15612183
N        7.05778003      -4.88318203       1.57194903
C        7.09399720      -4.33339539       0.33526055
S        8.31246421      -4.67280527      -0.73661682
N        6.06025289      -3.49106688       0.03411611
N        5.03814384      -3.26996695       0.91988069
C        4.08397102      -2.49846983       0.50518413
C        3.94029435      -1.78567132      -0.84351433
O        4.75004842      -1.82749405      -1.74485454
N        2.73208716      -1.12948638      -0.78521991
C        2.10459151      -1.34707181       0.44340746
C        0.87964448      -0.87964448       0.87964448
C        0.45135718      -1.24280293       2.16128629
C        1.25906542      -2.06189383       2.97526579
Br       0.64823954      -2.53832182       4.70147967
C        2.49594868      -2.53455296       2.53464834
C        2.88546315      -2.15877675       1.26470617
H        6.30095283      -4.60268331       2.18163448
H        7.78433401      -5.50504892       1.89374949
H        6.04276886      -3.05819396      -0.89377854
H        2.35898329      -0.57472979      -1.54351916
H       -0.51097768      -0.89491024       2.53225633
H        3.12527283      -3.17080086       3.14793141
