118
Properties=species:S:1:pos:R:3 pbc="F F F"
N        2.39774790       6.02411997      -7.82075529
C        1.10297443       5.63389077      -7.75550002
S        0.00964545       6.03222746      -8.93649183
N        0.76616992       4.88951920      -6.65945884
N        1.70237040       4.52987362      -5.72545953
C        1.28117728       3.77622230      -4.75993747
C       -0.12931547       3.23317054      -4.50830834
O       -1.09935655       3.46371215      -5.19804439
N       -0.02792904       2.45861338      -3.37538137
C        1.28093578       2.45578936      -2.88805772
C        1.78954850       1.78954850      -1.78954850
C        3.15123109       1.93283775      -1.50108963
C        3.96952119       2.74008759      -2.31632833
C        3.45616586       3.41255512      -3.42614108
C        2.10986892       3.24652278      -3.68226643
H        2.99742187       5.77112242      -7.04643840
H        2.73975611       6.59047687      -8.58261151
H       -0.20149952       4.56590622      -6.57248965
H       -0.80585257       1.95776399      -2.96799458
H        3.58334189       1.41699354      -0.64556553
H        4.07549502       4.03219461      -4.06602754
C        5.36855527       2.86848298      -2.00038802
C        6.54024631       2.97601411      -1.73578801
Br       8.43477162       3.14988286      -1.30795217
N       -8.53712884      -4.41557019      -3.28992413
C       -8.68300573      -3.55126349      -2.25809600
S      -10.14717701      -3.31374717      -1.51744056
N       -7.54589531      -2.89910904      -1.87014360
N       -6.33808677      -3.15427646      -2.46534031
C       -5.31931097      -2.52020145      -1.97782464
C       -5.27547999      -1.51055839      -0.82612504
O       -6.23810801      -1.12834662      -0.19594537
N       -3.94959981      -1.16925959      -0.68720630
C       -3.15960181      -1.84606250      -1.61911854
C       -1.78954850      -1.78954850      -1.78954850
C       -1.21512547      -2.57494350      -2.79508949
C       -2.02463817      -3.39505056      -3.60624839
C       -3.40825617      -3.45271401      -3.43389187
C       -3.94036388      -2.66698912      -2.43130513
H       -7.62041466      -4.48231242      -3.71225561
H       -9.32108627      -4.93230090      -3.65945733
H       -7.60787296      -2.24104988      -1.08797351
H       -3.60848749      -0.51959707       0.00817856
H       -0.13810214      -2.55645511      -2.95134372
H       -4.04291129      -4.08409998      -4.04670590
C       -1.40891047      -4.19659047      -4.63192532
C       -0.89323853      -4.86788014      -5.49092976
Br      -0.05944060      -5.95329877      -6.87986728
N       -3.92347802       3.71733164       8.60181349
C       -2.94952164       2.78924460       8.75359898
S       -2.50495023       2.22541463      10.24799987
N       -2.36859423       2.34976755       7.59678618
N       -2.79241259       2.79381072       6.37148023
C       -2.20846547       2.26601263       5.34285896
C       -1.09582033       1.21332772       5.30301537
O       -0.56511041       0.72149052       6.27579906
N       -0.86534731       0.97293072       3.96778767
C       -1.70256325       1.75409824       3.16812136
C       -1.78954850       1.78954850       1.78954850
C       -2.72200228       2.65549278       1.20766341
C       -3.54217657       3.46566399       2.01809656
C       -3.45489029       3.42957170       3.41040006
C       -2.52629186       2.56230443       3.95006184
H       -4.11643859       4.03686312       7.66168098
H       -4.40079709       4.11527175       9.39677565
H       -1.63190327       1.64158592       7.66340716
H       -0.18274417       0.30918148       3.62798034
H       -2.81833122       2.70304793       0.12452181
H       -4.08409785       4.04289038       4.04672893
C       -4.49645116       4.34589629       1.39507882
C       -5.29565613       5.08309084       0.87330146
Br      -6.58790298       6.27507207       0.02963160
N        7.99306730      -5.75061909       2.49893677
C        8.03454205      -5.19098350       1.26683967
S        9.26383057      -5.51266162       0.20187256
N        6.99663933      -4.35433211       0.96417651
N        5.96604970      -4.14799875       1.84365509
C        5.00913864      -3.38067970       1.42751871
C        4.87032758      -2.65855834       0.08327749
O        5.68730286      -2.68714049      -0.81204335
N        3.65664829      -2.01217466       0.13724275
C        3.02141303      -2.24412219       1.35924763
C        1.78954850      -1.78954850       1.78954850
C        1.35423155      -2.16593707       3.06498984
C        2.16197986      -2.98507599       3.87888127
C        3.40585428      -3.44475518       3.44425260
C        3.80221259      -3.05613919       2.18030635
H        7.22940965      -5.48070274       3.10487030
H        8.72192706      -6.36934936       2.82156807
H        6.98294463      -3.91441478       0.03953694
H        3.28510186      -1.45443793      -0.61963380
H        0.38639456      -1.82836064       3.43114577
H        4.03535579      -4.08087811       4.05748328
C        1.68981699      -3.36143441       5.18617486
C        1.29438058      -3.67663459       6.28103325
Br       0.65499335      -4.18628663       8.05132667
C       -0.00445707       0.01189536      -1.78238275
H       -0.66409135       0.67374010      -2.43557963
H        0.65740317      -0.63156657      -2.45157240
C       -0.90989263      -0.90692880      -0.91072765
C        0.90977584       0.90977584      -0.90977584
C       -0.00465871       1.77757030       0.00794375
H       -0.66225468       2.44313916      -0.64384735
H        0.64322798       2.43503045       0.67728295
C       -1.78241447       0.00034974      -0.00472694
H       -2.45427497      -0.65498947       0.64260836
H       -2.43311707       0.67328779      -0.65473579
C       -0.91132561       0.90220522       0.91563759
C       -0.01476271      -0.02253852       1.78660255
H       -0.67934791      -0.69751639       2.42135241
H        0.63392994       0.61504881       2.47327442
C        0.01484550      -1.77751727      -0.01636693
H        0.67870853      -2.42144646      -0.68295456
H       -0.62264859      -2.45592969       0.64226336
C        1.78714474       0.01002794       0.00389507
H        2.44202412       0.67113390       0.66197326
H        2.45385902      -0.65136977      -0.64189061
C        0.91606151      -0.90478549       0.90901405
