174
Properties=species:S:1:pos:R:3 pbc="F F F"
C        6.16556013       5.40822333      -4.73894827
C        5.09904201       5.11642789      -3.69779994
O        4.19531980       4.15782287      -4.24979234
C        3.42573315       3.41701130      -3.39692775
C        3.31810659       3.65398846      -2.02281397
C        2.50959913       2.83928546      -1.22145298
C        1.79112785       1.79112785      -1.79112785
C        1.86608722       1.54851974      -3.15761894
C        2.68202026       2.36363100      -3.95336208
S        2.73996428       2.05182488      -5.69583039
O        4.10580121       1.75386292      -6.06684651
O        1.66289247       1.14563086      -6.04496146
N        2.32288227       3.55692173      -6.34760662
N        1.97365235       3.61462574      -7.76334813
C        2.29983228       4.76096887      -8.46203600
O        2.80289879       5.72856519      -7.88995076
C        2.05798991       4.70733434      -9.89221105
C        1.20969635       3.87818451     -10.62049985
C        1.33407335       4.22498149     -11.97774938
Br       0.39470789       3.40425837     -13.37316703
C        2.24026820       5.24645843     -12.08500518
N        2.67220854       5.54011184     -10.81603323
C        3.66130536       6.55402330     -10.51310137
H        6.83690563       6.20092190      -4.39685850
H        5.71594170       5.70427100      -5.69159371
H        6.75961022       4.50827633      -4.93199857
H        4.54540048       6.03284691      -3.46279869
H        5.59972748       4.74014715      -2.79871236
H        3.84481218       4.46996748      -1.53707987
H        2.44700705       3.03528857      -0.15322385
H        1.29591411       0.73535731      -3.60137165
H        2.89278009       4.34350329      -6.00439851
H        1.69894716       2.74799021      -8.21735987
H        0.55575001       3.11641752     -10.21475477
H        2.60875338       5.78591466     -12.94765811
H        4.43999119       6.11134194      -9.88608460
H        3.16143586       7.37994300     -10.00116936
H        4.11223532       6.91143600     -11.44254311
C       -4.62704751      -5.71348695      -5.97219727
C       -3.95133357      -4.42479187      -5.53714439
O       -4.22235695      -4.23266622      -4.14791184
C       -3.39780496      -3.41461828      -3.42724896
C       -2.40986420      -2.59812114      -3.98692369
C       -1.60429456      -1.79489924      -3.17114376
C       -1.79112785      -1.79112785      -1.79112785
C       -2.77997072      -2.57873854      -1.21351665
C       -3.57885498      -3.38528087      -2.03487750
S       -4.84998348      -4.35928282      -1.27835326
O       -4.60076006      -5.75332517      -1.57242541
O       -5.03109486      -3.91144403       0.08905410
N       -6.23239971      -3.87120448      -2.12380643
N       -7.53353306      -4.24155785      -1.57653530
C       -8.55859683      -4.49755236      -2.46668796
O       -8.39645483      -4.34682955      -3.67813035
C       -9.78600573      -4.99706089      -1.87446868
C      -10.24751463      -4.89568268      -0.56518339
C      -11.49518716      -5.54140414      -0.50021293
Br     -12.53863469      -5.68085033       1.04735171
C      -11.79730518      -6.03129977      -1.74312685
N      -10.75998996      -5.69299707      -2.57536658
C      -10.69502485      -6.05773871      -3.97566647
H       -4.52025769      -5.86429074      -7.05013760
H       -5.69028296      -5.70784670      -5.71367675
H       -4.17700108      -6.56789837      -5.45498567
H       -4.36241493      -3.57870707      -6.09992409
H       -2.87853370      -4.52239571      -5.73765759
H       -2.23942570      -2.55397839      -5.05845544
H       -0.83552385      -1.17398421      -3.62601140
H       -2.93026507      -2.56612618      -0.13625182
H       -6.15244632      -3.93963104      -3.14860453
H       -7.57740696      -4.49377233      -0.59311795
H       -9.74685494      -4.39284138       0.25277402
H      -12.65509959      -6.58401000      -2.10321656
H       -9.73090682      -6.53466463      -4.17184627
H      -10.81817296      -5.15116922      -4.57320605
H      -11.49607388      -6.76540484      -4.20473571
C       -6.23989278       5.19972573       4.87311323
C       -5.29216678       4.89495291       3.72615015
O       -4.18200239       4.16723964       4.25369298
C       -3.42827067       3.41265743       3.39874411
C       -3.54709006       3.44224986       2.00556912
C       -2.73663408       2.62881024       1.20489325
C       -1.79112785       1.79112785       1.79112785
C       -1.64050446       1.75926352       3.17245792
C       -2.45905096       2.57120714       3.96875524
S       -2.22978418       2.53329658       5.72453880
O       -3.46826247       2.11483464       6.34341352
O       -0.98590130       1.84838961       6.01919388
N       -1.97076990       4.16491219       6.09172853
N       -1.44594763       4.49218171       7.41349687
C       -1.85092511       5.67932443       7.99258761
O       -2.57336398       6.46709720       7.38095355
C       -1.41160818       5.88538277       9.36054435
C       -0.35213081       5.30457320      10.05167670
C       -0.34409637       5.84102305      11.35168481
Br       0.89376751       5.38609152      12.67980929
C       -1.37702979       6.73391324      11.46078877
N       -2.01824727       6.76222047      10.24788587
C       -3.18680259       7.57172627       9.96990116
H       -7.06807756       5.82986038       4.53674809
H       -5.71740832       5.70068507       5.69371302
H       -6.65269602       4.26925265       5.27793645
H       -4.92718517       5.82942762       3.28443329
H       -5.84466278       4.31703135       2.97689288
H       -4.25699485       4.09214156       1.50272311
H       -2.85147641       2.66047180       0.12357126
H       -0.89423313       1.11140844       3.62700151
H       -2.69891731       4.80267075       5.73909382
H       -0.97883710       3.75350014       7.93196001
H        0.35255012       4.58433167       9.65514075
H       -1.70535077       7.34759403      12.28938135
H       -3.96376351       6.93401707       9.53963715
H       -2.89776062       8.36668412       9.27810349
H       -3.55796338       8.00669030      10.90156074
C        4.85747921      -5.22060921       6.23464332
C        4.44097198      -3.94011417       5.53218368
O        4.19058676      -4.25153514       4.16081311
C        3.40473013      -3.40466147       3.43028060
C        2.97309731      -2.14985313       3.87195859
C        2.16291821      -1.34910766       3.05831170
C        1.79112785      -1.79112785       1.79112785
C        2.22437027      -3.02569213       1.32216351
C        3.02993863      -3.82525175       2.14382296
S        3.59178010      -5.38217518       1.51366427
O        3.11043077      -6.43336134       2.38271853
O        3.33975517      -5.42750787       0.08622175
N        5.27013801      -5.26236951       1.69490310
N        6.10286004      -6.24289323       1.00587294
C        7.28303626      -6.62712300       1.61267789
O        7.65264495      -6.10417953       2.66459025
C        7.99846253      -7.70481305       0.95425973
C        7.92245100      -8.14873252      -0.36280282
C        8.82154080      -9.22071767      -0.50545425
Br       9.10019716     -10.16763591      -2.09569977
C        9.43927883      -9.43418890       0.69826407
N        8.94118577      -8.50767341       1.57949442
C        9.33073462      -8.42550682       2.97218859
H        5.14244049      -5.02079365       7.27145189
H        5.69464974      -5.69943383       5.71772284
H        4.02908680      -5.93743060       6.23336771
H        5.25054565      -3.20315047       5.58734996
H        3.54796296      -3.55421212       6.03641192
H        3.25214698      -1.75531076       4.84440178
H        1.83067674      -0.38016870       3.42467402
H        1.94067239      -3.36395907       0.32801162
H        5.58028122      -5.01480811       2.64559254
H        5.69048624      -6.74759725       0.22621376
H        7.29883382      -7.73181965      -1.14373117
H       10.18565194     -10.15769612       0.99897809
H        8.42933178      -8.41713150       3.59095445
H        9.91661297      -7.51378125       3.11215400
H        9.93428404      -9.29875109       3.23317929
C       -0.00445707       0.01189536      -1.78238275
H       -0.66409135       0.67374010      -2.43557963
H        0.65740317      -0.63156657      -2.45157240
C       -0.90989263      -0.90692880      -0.91072765
C        0.90977584       0.90977584      -0.90977584
C       -0.00465871       1.77757030       0.00794375
H       -0.66225468       2.44313916      -0.64384735
H        0.64322798       2.43503045       0.67728295
C       -1.78241447       0.00034974      -0.00472694
H       -2.45427497      -0.65498947       0.64260836
H       -2.43311707       0.67328779      -0.65473579
C       -0.91132561       0.90220522       0.91563759
C       -0.01476271      -0.02253852       1.78660255
H       -0.67934791      -0.69751639       2.42135241
H        0.63392994       0.61504881       2.47327442
C        0.01484550      -1.77751727      -0.01636693
H        0.67870853      -2.42144646      -0.68295456
H       -0.62264859      -2.45592969       0.64226336
C        1.78714474       0.01002794       0.00389507
H        2.44202412       0.67113390       0.66197326
H        2.45385902      -0.65136977      -0.64189061
C        0.91606151      -0.90478549       0.90901405
