161
Properties=species:S:1:pos:R:3 pbc="F F F"
C        0.00000000       0.00000000       0.00000000
C        5.25565611       4.49831930      -3.82904425
C        4.18913798       4.20652386      -2.78789592
O        3.28541577       3.24791885      -3.33988832
C        2.51582913       2.50710728      -2.48702373
C        2.40820257       2.74408444      -1.11290995
C        1.59969511       1.92938144      -0.31154895
C        0.88122382       0.88122382      -0.88122382
C        0.95618320       0.63861571      -2.24771492
C        1.77211624       1.45372697      -3.04345806
S        1.83006026       1.14192085      -4.78592637
O        3.19589719       0.84395889      -5.15694248
O        0.75298844       0.23572684      -5.13505744
N        1.41297825       2.64701770      -5.43770260
N        1.06374832       2.70472171      -6.85344411
C        1.38992825       3.85106484      -7.55213198
O        1.89299476       4.81866116      -6.98004674
C        1.14808589       3.79743032      -8.98230703
C        0.29979232       2.96828048      -9.71059582
C        0.42416933       3.31507747     -11.06784536
C        1.33036417       4.33655440     -11.17510115
N        1.76230451       4.63020781      -9.90612921
C        2.75140134       5.64411927      -9.60319734
H        5.92700160       5.29101788      -3.48695448
H        4.80603768       4.79436698      -4.78168969
H        5.84970620       3.59837231      -4.02209454
H        3.63549645       5.12294289      -2.55289467
H        4.68982346       3.83024313      -1.88880834
H        2.93490815       3.56006346      -0.62717584
H        1.53710302       2.12538454       0.75668018
H        0.38601009      -0.17454671      -2.69146763
H        1.98287606       3.43359926      -5.09449448
H        0.78904314       1.83808619      -7.30745585
H       -0.35415402       2.20651350      -9.30485075
H        1.69884935       4.87601064     -12.03775408
H        3.53008716       5.20143792      -8.97618058
H        2.25153184       6.47003898      -9.09126534
H        3.20233129       6.00153198     -10.53263908
C       -0.29854320       2.68364390     -12.14142733
C       -0.90381495       2.15481829     -13.04055223
Br      -1.88248816       1.29975201     -14.49436115
C       -5.05189367      -3.71479418      -4.81633181
C       -4.62261802      -3.03094915      -3.52999059
O       -3.23791701      -3.31325566      -3.32205027
C       -2.51718322      -2.48778297      -2.50499394
C       -3.07509620      -1.48683871      -1.70326205
C       -2.25929498      -0.68138809      -0.89994242
C       -0.88122382      -0.88122382      -0.88122382
C       -0.30565789      -1.88296390      -1.65389204
C       -1.12694425      -2.68170867      -2.46064835
S       -0.37341414      -3.96918160      -3.41531174
O       -0.65189143      -3.73051271      -4.81439443
O        0.98790324      -4.15893554      -2.95274042
N       -1.23661125      -5.33881322      -2.92227407
N       -0.69831259      -6.64854347      -3.27505809
C       -1.59575306      -7.66753841      -3.52983360
O       -2.80696331      -7.49251097      -3.39222838
C       -1.01058436      -8.90520961      -4.01202927
C        0.29321585      -9.37809480      -3.89378968
C        0.35237307     -10.63243628      -4.52702894
C       -0.88867941     -10.92744751      -5.02589282
N       -1.71413735      -9.87912177      -4.70538242
C       -3.11023968      -9.80439881      -5.08407947
H       -6.12729004      -3.59925665      -4.97842727
H       -4.80360445      -4.78032537      -4.79816452
H       -4.52234758      -3.27784157      -5.66998389
H       -5.19727717      -3.42858864      -2.68546820
H       -4.81194380      -1.95728149      -3.63964964
H       -4.14532093      -1.30585702      -1.67096951
H       -2.71265330       0.09754648      -0.29070058
H        0.76995488      -2.04331546      -1.62957042
H       -2.25990580      -5.24982568      -3.00123832
H        0.28698289      -6.70412563      -3.51744244
H        1.11112395      -8.88041599      -3.38791818
H       -1.25170028     -11.78703659      -5.57387721
H       -3.29268195      -8.84306694      -5.57195678
H       -3.71747782      -9.91322456      -4.18213376
H       -3.34024403     -10.60996707      -5.78629125
C        1.53625142     -11.44744154      -4.61533792
C        2.52774955     -12.13000844      -4.68929669
Br       4.13091815     -13.23366138      -4.80888177
C       -4.71699395       5.12768532       3.73834039
C       -3.41603565       4.65174030       3.11578181
O       -3.32727266       3.23897705       3.30697322
C       -2.50284677       2.51832243       2.48879094
C       -1.59104044       3.08297648       1.59118003
C       -0.78843343       2.26739032       0.78480175
C       -0.88122382       0.88122382       0.88122382
C       -1.76541464       0.29676819       1.78033101
C       -2.57055209       1.11853800       2.58021117
S       -3.66971603       0.35076696       3.73742448
O       -5.02396940       0.74970948       3.42311969
O       -3.31907112      -1.05141824       3.85611984
N       -3.22194813       1.07652269       5.19922772
N       -3.70903781       0.47601159       6.43686473
C       -3.97635633       1.31660631       7.50016244
O       -3.74160477       2.52329990       7.42679799
C       -4.59003047       0.68424764       8.65354512
C       -4.59917223      -0.65462331       9.03411970
C       -5.32755779      -0.75355610      10.23309045
C       -5.75918082       0.49782769      10.58501122
N       -5.30377542       1.36812541       9.62674070
C       -5.57721018       2.79055727       9.63095050
H       -4.79433143       6.21766792       3.69297460
H       -4.79644211       4.80482329       4.78082894
H       -5.57029572       4.69571512       3.20416220
H       -2.56570289       5.13202117       3.61360994
H       -3.43110697       4.92340229       2.05436567
H       -1.47045667       4.15776882       1.49392196
H       -0.09211200       2.72699628       0.08669911
H       -1.82850859      -0.78619971       1.86062212
H       -3.22223512       2.10656866       5.18216602
H       -4.02322937      -0.48972647       6.40108227
H       -4.11573973      -1.47145402       8.51292451
H       -6.34354145       0.84003432      11.42903830
H       -5.97743128       3.07596739       8.65430699
H       -4.64575326       3.31912373       9.84795917
H       -6.32022146       3.01583073      10.40045016
C       -5.55950489      -1.98152840      10.94855154
C       -5.75376058      -3.00995521      11.54775020
Br      -6.06785561      -4.67283437      12.51660375
C        4.10619205      -5.35177896       4.12504865
C        2.88726662      -4.51252984       3.78376129
O        3.34438583      -3.26176865       3.26706846
C        2.49112801      -2.51974616       2.49908597
C        1.13215178      -2.80333847       2.32970670
C        0.33167059      -1.99134480       1.51761011
C        0.88122382      -0.88122382       0.88122382
C        2.22459197      -0.56741003       1.05051182
C        3.02201038      -1.38768015       1.85961074
S        4.72422754      -0.95192308       2.08175686
O        5.54637295      -2.04318611       1.60723950
O        4.92940080       0.39758016       1.59195208
N        4.86074835      -0.87032254       3.76662766
N        6.05395522      -0.24274479       4.32521413
C        6.53895272      -0.73104154       5.52313081
O        5.94066712      -1.61795546       6.13308009
C        7.80311032      -0.16616646       5.95854646
C        8.41080566       1.03434351       5.60220647
C        9.62664925       1.12299743       6.30344033
C        9.76663786       0.00072180       7.07610366
N        8.65447898      -0.77582780       6.86833475
C        8.44117839      -2.06575329       7.49178627
H        3.81127217      -6.28973429       4.60396750
H        4.78613486      -4.80805563       4.78790385
H        4.66803248      -5.58749850       3.21464206
H        2.29498286      -4.32871930       4.68763185
H        2.29051067      -5.06726080       3.05110345
H        0.65538659      -3.64693673       2.81982413
H       -0.72112548      -2.23487306       1.39205980
H        2.64875704       0.30607135       0.56024532
H        4.53566697      -1.71272426       4.26257858
H        6.58863836       0.37546812       3.72141494
H        8.01124134       1.77707723       4.92304611
H       10.55403390      -0.30698546       7.75159471
H        8.19512925      -2.79623831       6.71633810
H        7.62910557      -1.96740779       8.21632279
H        9.35657163      -2.37990449       8.00002623
C       10.54705882       2.22611602       6.20558523
C       11.31790183       3.14997783       6.12363158
Br      12.56428979       4.64378424       5.99111946
