193
Properties=species:S:1:pos:R:3 pbc="F F F"
C        0.00000000       0.00000000       0.00000000
C        0.88212981       0.88212981      -0.88212981
C        1.64803237       1.89393568      -0.30595486
C        2.45546564       2.69904616      -1.11430070
C        2.50419666       2.49369403      -2.50145466
C        1.72326287       1.47125762      -3.06410929
C        0.91537873       0.66697390      -2.25787999
C        3.38172248       3.35486876      -3.39154784
N        4.81737790       3.29917429      -3.06138095
C        5.34743430       1.93426538      -3.12620950
C        5.60747251       4.22728199      -3.91029521
C        5.47498065       3.95860913      -5.42415364
O        5.88149275       2.89288204      -5.90333822
N        4.89663359       4.91519958      -6.24716115
C        4.36640335       6.20723138      -5.83358911
C        4.73216787       4.56994282      -7.66163470
C        3.35697901       3.92585336      -7.92152973
O        2.36141654       4.25415906      -7.27988016
N        3.37864945       3.01436334      -8.96476638
C        2.27786127       2.32342614      -9.53056313
C        0.94827920       2.64902794      -9.24430474
C       -0.10541575       1.93476963      -9.82548586
C        0.15516484       0.88563976     -10.70237491
C        1.47232957       0.55527663     -11.01180051
C        2.52533780       1.27403692     -10.43549945
H        1.62808803       2.06093196       0.76747591
H        3.06174591       3.47962742      -0.65984443
H        1.74516983       1.29239580      -4.13754915
H        0.32171514      -0.12153592      -2.71241328
H        3.02370165       4.38749820      -3.28431226
H        3.21104221       3.07410208      -4.43820566
H        4.95654571       1.32887991      -2.30107220
H        6.43682000       1.93168810      -3.00132675
H        5.10326385       1.42376442      -4.06234494
H        6.67369899       4.14005825      -3.66377236
H        5.35673002       5.25314047      -3.64072273
H        4.10926841       6.24141274      -4.77668474
H        3.46205651       6.44074293      -6.40297017
H        5.12420454       6.96601639      -6.05021395
H        5.53015974       3.89151623      -7.98098994
H        4.81002216       5.48056856      -8.26586015
H        4.28785381       2.69962675      -9.29001140
H        0.69113014       3.46607734      -8.57728580
H       -1.13222271       2.20374036      -9.58735267
H       -0.66717391       0.32886695     -11.14480356
H        1.66819812      -0.26365948     -11.69926720
C        3.86729436       0.89498288     -10.79476345
C        4.99118298       0.57752512     -11.09564704
Br       6.80841582       0.06422277     -11.58215037
C       -0.88212981      -0.88212981      -0.88212981
C       -0.31508953      -1.59778367      -1.93504970
C       -1.12336063      -2.40531753      -2.74013434
C       -2.50112342      -2.50443311      -2.49378882
C       -3.05478181      -1.77366045      -1.43018752
C       -2.24866536      -0.96571798      -0.62584928
C       -3.39068439      -3.38286236      -3.35459233
N       -3.01483178      -4.80832836      -3.35477301
C       -3.01986615      -5.38198486      -2.00605817
C       -3.86807648      -5.59604036      -4.28093288
C       -5.37599045      -5.52009053      -3.96166244
O       -5.80829391      -5.97427927      -2.89513983
N       -6.24642699      -4.93900152      -4.87356581
C       -5.89067937      -4.35632870      -6.16021577
C       -7.65360382      -4.83030913      -4.47983244
C       -7.93514062      -3.48457944      -3.78464203
O       -7.33523637      -2.45947557      -4.10074383
N       -8.94770558      -3.56748527      -2.84258832
C       -9.52489912      -2.50705689      -2.09989452
C       -9.29024412      -1.15964397      -2.39172379
C       -9.88061430      -0.14747040      -1.62675504
C      -10.71525669      -0.46800433      -0.55991849
C      -10.97328743      -1.80389541      -0.26222387
C      -10.38795682      -2.81539936      -1.03151799
H        0.75136430      -1.53858329      -2.13432510
H       -0.67548653      -2.97250072      -3.55323051
H       -4.12080699      -1.83518745      -1.21912034
H       -2.69597555      -0.41138587       0.19476891
H       -3.32741860      -2.98996333      -4.37813018
H       -4.43264817      -3.25427959      -3.03642219
H       -2.18833479      -4.98389891      -1.41426413
H       -2.86145527      -6.46641097      -2.04196861
H       -3.94637608      -5.18354903      -1.45944810
H       -3.58616709      -6.65607073      -4.23529178
H       -3.63911200      -5.30536160      -5.30611963
H       -4.84382173      -4.06478838      -6.21875577
H       -6.49479335      -3.46377673      -6.34719953
H       -6.10786622      -5.09689287      -6.93567579
H       -7.92648573      -5.65857754      -3.81760264
H       -8.28379103      -4.89923812      -5.37342173
H       -9.23460809      -4.49583753      -2.54704634
H       -8.65778128      -0.85636242      -3.22034958
H       -9.68290691       0.89418915      -1.87015257
H      -11.16488865       0.32230436       0.03608769
H      -11.62800629      -2.04666482       0.57086527
C      -10.69346501      -4.17914295      -0.68443273
C      -10.94932812      -5.32127820      -0.39374882
Br     -11.36303713      -7.16801431       0.07626247
C       -0.88212981       0.88212981       0.88212981
C       -1.25801094       0.44049770       2.14941426
C       -2.06388523       1.24938134       2.95554594
C       -2.49408667       2.50494223       2.50031645
C       -2.10757181       2.93153704       1.21952093
C       -1.30347208       2.12400226       0.41275829
C       -3.36337605       3.39787667       3.36688635
N       -2.74999049       3.77455250       4.65339015
C       -1.46907403       4.46409915       4.47473600
C       -3.68309425       4.57413394       5.48782152
C       -4.16908198       5.87463998       4.81402147
O       -3.36208256       6.77244077       4.54318968
N       -5.51423110       6.03411304       4.51065018
C       -6.57810169       5.07063567       4.75848648
C       -5.90045033       7.25862082       3.80467423
C       -5.87266595       7.05371156       2.27798459
O       -6.15516944       5.97117691       1.76910942
N       -5.55991723       8.21231035       1.58555160
C       -5.54871235       8.40224149       0.18089669
C       -6.08482371       7.47238846      -0.71560029
C       -6.04699153       7.70313481      -2.09528660
C       -5.47388313       8.86761547      -2.59831909
C       -4.94769229       9.81292999      -1.72121557
C       -4.99170968       9.58469314      -0.34152864
H       -0.92676290      -0.52554489       2.52032608
H       -2.34493422       0.90711773       3.94916581
H       -2.42820961       3.90192591       0.84497927
H       -1.01206459       2.47426847      -0.57374056
H       -4.29397568       2.84611510       3.55542133
H       -3.64206155       4.28952007       2.79176834
H       -0.70313460       3.76834040       4.11502282
H       -1.09321395       4.84467154       5.43194936
H       -1.52554195       5.29652556       3.76730570
H       -3.18815097       4.86615643       6.42322220
H       -4.50429803       3.93477998       5.81151522
H       -6.21106550       4.05164313       4.86465725
H       -7.29347271       5.08127448       3.93102242
H       -7.09555090       5.37017297       5.67471100
H       -5.23569355       8.08256980       4.08440257
H       -6.91763335       7.53881290       4.10000463
H       -5.17309603       8.98463585       2.11976007
H       -6.55406183       6.55479303      -0.37436158
H       -6.46823730       6.96547743      -2.77484441
H       -5.43994793       9.03807430      -3.67152563
H       -4.50385995      10.72106963      -2.12112374
C       -4.43928749      10.59744715       0.52030605
C       -3.97663391      11.44562864       1.24209260
Br      -3.22856219      12.81706636       2.40916041
C        0.88212981      -0.88212981       0.88212981
C        1.26667520      -2.14523648       0.43601122
C        2.07479173      -2.95028698       1.24373379
C        2.50558191      -2.49477361       2.49898983
C        2.10551466      -1.22051285       2.93260226
C        1.29733302      -0.41571845       2.12718116
C        3.38944175      -3.35431786       3.38437947
N        4.68027297      -3.72263661       2.77502357
C        5.46758742      -2.54671223       2.39360952
C        5.45781829      -4.63207595       3.65515547
C        5.76059986      -4.04661519       5.05052838
O        6.47469402      -3.04233466       5.16068433
N        5.22807322      -4.64863126       6.18228984
C        4.36839711      -5.82397320       6.21485352
C        5.49092862      -4.00213952       7.47067724
C        4.37764657      -2.99886073       7.82785480
O        3.20952650      -3.18945470       7.49647457
N        4.83631473      -1.93446197       8.58700247
C        4.06843046      -0.89466663       9.16875344
C        2.67218538      -0.92992323       9.23950327
C        1.95737542       0.12333446       9.82079877
C        2.62845919       1.22629792      10.34101825
C        4.01961038       1.27370826      10.29350459
C        4.73409435       0.21731036       9.71809018
H        0.94857494      -2.50980864      -0.53683949
H        2.38360307      -3.93052026       0.88709443
H        2.42781249      -0.84517076       3.90213154
H        1.00206775       0.56892023       2.47944498
H        2.82014114      -4.26608245       3.60928851
H        3.54245687      -2.83979623       4.34109685
H        5.01113952      -2.03776683       1.53759147
H        6.47045084      -2.83912560       2.06025842
H        5.56865308      -1.81777757       3.20294257
H        6.42518046      -4.86237466       3.18997448
H        4.95132994      -5.59596307       3.70330022
H        3.85553022      -6.00046138       5.27137428
H        3.60592288      -5.70910418       6.99074255
H        4.99172886      -6.68914274       6.45956327
H        6.46053444      -3.49380249       7.44832899
H        5.53560120      -4.76640000       8.25444967
H        5.84134483      -1.79754043       8.63860670
H        2.10207341      -1.77232111       8.86009876
H        0.87140780       0.07613635       9.86359887
H        2.06770300       2.04547921      10.78427281
H        4.53703895       2.13712216      10.70388905
C        6.17070402       0.31455728       9.70089396
C        7.37386461       0.39600158       9.68649212
Br       9.31927353       0.52769013       9.66320557
