170
Properties=species:S:1:pos:R:3 pbc="F F F"
C        5.31862722       4.83307308      -3.64942044
O        4.17064916       4.21446551      -4.23034980
C        3.41185124       3.43026341      -3.40688632
C        3.95198711       2.73124927      -2.31695958
C        3.14590748       1.91829182      -1.51108194
C        1.79072959       1.79072959      -1.79072959
C        1.23841260       2.45869196      -2.87572379
C        2.05035872       3.27034614      -3.68901866
S        1.20751632       4.05204627      -5.03357312
O        0.73287032       2.99966203      -5.91177527
O        0.27348746       4.99397588      -4.45058690
N        2.31676687       4.95223982      -5.90898007
N        1.86985146       5.68688591      -7.06817357
C        2.71392118       6.59544280      -7.67699268
O        3.85001900       6.80397173      -7.24815945
C        2.14084461       7.27828460      -8.83125498
C        0.93426181       7.04840188      -9.49094317
C        0.83566354       7.96695843     -10.55015195
C        1.95743808       8.74855980     -10.54885643
N        2.74778977       8.32848178      -9.50782221
C        4.02556851       8.92638946      -9.17697795
H        5.74059194       5.51132999      -4.39713247
H        6.09160123       4.09964779      -3.40246734
H        5.03851134       5.42732898      -2.77332335
H        5.00963617       2.77890867      -2.07579924
H        3.58982833       1.38511481      -0.67328202
H        0.17738019       2.35466458      -3.09949643
H        3.27466322       5.06726502      -5.55895960
H        0.90652975       5.55210054      -7.35588828
H        0.19973670       6.29252773      -9.24648522
H        2.25908237       9.56142803     -11.19681764
H        3.97482637       9.31274555      -8.15632013
H        4.23030098       9.74991902      -9.86684317
H        4.80261172       8.16526857      -9.27976248
C       -0.27449133       8.03969058     -11.46440913
C       -1.20424604       8.10060375     -12.23009952
Br      -2.70758076       8.19909519     -13.46815612
C       -4.34670310      -3.89720095      -5.55721670
O       -4.22973877      -4.21528560      -4.17044009
C       -3.42722359      -3.40296732      -3.41881006
C       -2.31462232      -2.73438628      -3.95118736
C       -1.50228026      -1.93010517      -3.14289580
C       -1.79072959      -1.79072959      -1.79072959
C       -2.87607441      -2.45822138      -1.23853257
C       -3.68817648      -3.27147648      -2.05007055
S       -5.02794495      -4.05960025      -1.20559052
O       -4.44767877      -4.96472901      -0.23189985
O       -5.92983920      -3.00856724      -0.77964380
N       -5.87131729      -5.00278968      -2.30387978
N       -7.01663240      -5.75606293      -1.85221560
C       -7.84597793      -6.36863580      -2.77174292
O       -7.63641854      -6.28286188      -3.98286976
C       -8.97167598      -7.08981570      -2.18889251
C       -9.25077641      -7.37074661      -0.85208386
C      -10.45210469      -8.09855456      -0.80211467
C      -10.90755014      -8.26713172      -2.08017245
N      -10.00822081      -7.65686159      -2.91901136
C      -10.15441594      -7.61450113      -4.36001885
H       -5.10691502      -4.55868087      -5.98345851
H       -3.41315293      -4.08530591      -6.09525752
H       -4.68323986      -2.86389559      -5.69202822
H       -2.03455926      -2.83425974      -4.99552507
H       -0.64411987      -1.42425539      -3.57984990
H       -3.09961321      -2.35450785      -0.17742015
H       -5.64234531      -4.95534719      -3.30319534
H       -7.20909313      -5.74912465      -0.85630080
H       -8.65084759      -7.09197493       0.00407287
H      -11.78839297      -8.76743315      -2.46150193
H      -10.20045330      -6.56917053      -4.67426822
H      -11.08097683      -8.12034477      -4.64574157
H       -9.30450647      -8.13205791      -4.81107839
C      -11.06704659      -8.57301882       0.41045703
C      -11.58206042      -8.97038264       1.42598583
Br     -12.41479424      -9.61288633       3.06801001
C       -5.53743094       4.41223256       3.85145725
O       -4.16995442       4.22792773       4.21758231
C       -3.41785536       3.42781839       3.40332721
C       -3.96542387       2.36380397       2.67096811
C       -3.15744766       1.55131430       1.86651928
C       -1.79072959       1.79072959       1.79072959
C       -1.22437379       2.82678048       2.52167408
C       -2.03595863       3.63881583       3.33494906
S       -1.17282064       4.91261410       4.20770098
O       -0.25898551       4.25967780       5.12564432
O       -0.67100618       5.83645040       3.21059368
N       -2.27470097       5.76232637       5.14095941
N       -1.80984546       6.85897555       5.95608993
C       -2.72058749       7.70023335       6.56553582
O       -3.93447503       7.54259723       6.42507793
C       -2.12421904       8.77329351       7.35287165
C       -0.78995969       8.98786485       7.69578234
C       -0.72301925      10.15744184       8.47231285
C       -1.98837319      10.65670504       8.60977609
N       -2.83607907       9.81562387       7.93239082
C       -4.26758083      10.02070183       7.84065326
H       -5.96024611       5.16290949       4.52589880
H       -6.11795964       3.49436027       3.98139646
H       -5.61790837       4.79326648       2.82798882
H       -5.02288774       2.12199799       2.71945835
H       -3.60647079       0.73130240       1.31045197
H       -0.15217587       3.01162699       2.46773834
H       -3.27937549       5.57538792       5.04612443
H       -0.80779772       7.01168027       5.99504059
H        0.05299337       8.36539620       7.42634682
H       -2.35528829      11.53221889       9.12982086
H       -4.53788433      10.11930060       6.78670712
H       -4.53750311      10.93783734       8.37172271
H       -4.77119515       9.17023535       8.30621227
C        0.49235557      10.70487232       9.01709163
C        1.51023198      11.16334534       9.47334387
Br       3.15605204      11.90465745      10.21106514
C        4.33156577      -3.90835061       5.56120436
O        4.23014549      -4.21474247       4.17057651
C        3.42707746      -3.40289211       3.41903140
C        2.30358914      -2.74937437       3.94723245
C        1.49128424      -1.94512977       3.13886723
C        1.79072959      -1.79072959       1.79072959
C        2.88713401      -2.44322417       1.24247018
C        3.69925180      -3.25647399       2.05399772
S        5.05382464      -4.02459313       1.21471794
O        4.49077257      -4.92598634       0.22754872
O        5.94986993      -2.96153406       0.80664627
N        5.89579451      -4.97011428       2.31207796
N        7.05203720      -5.70876051       1.86411322
C        7.87857252      -6.32217933       2.78560481
O        7.65722663      -6.24943652       3.99548704
C        9.01609846      -7.02770908       2.20657665
C        9.30991428      -7.29380631       0.86988628
C       10.51827782      -8.01016730       0.82432881
C       10.96360729      -8.18631973       2.10492729
N       10.05112075      -7.59198129       2.94099172
C       10.18380716      -7.56152253       4.38360623
H        5.09390921      -4.56677304       5.98837214
H        3.39492620      -4.10987063       6.08891953
H        4.65736275      -2.87330788       5.70849304
H        2.01496681      -2.86137367       4.98800360
H        0.62457736      -1.45113930       3.57250850
H        3.11935415      -2.32774528       0.18444178
H        5.65731620      -4.93393191       3.30963973
H        7.25347718      -5.69092998       0.87011142
H        8.71526427      -7.01265573       0.01082965
H       11.84550052      -8.68206756       2.48975996
H       10.21738642      -6.51874517       4.70776047
H       11.11233518      -8.06151861       4.67320937
H        9.33461676      -8.09090759       4.82211841
C       11.14855355      -8.46786730      -0.38681247
C       11.67640948      -8.85119106      -1.40114330
Br      12.52990786      -9.47099315      -3.04123045
C       -0.00445707       0.01189536      -1.78238275
H       -0.66409135       0.67374010      -2.43557963
H        0.65740317      -0.63156657      -2.45157240
C       -0.90989263      -0.90692880      -0.91072765
C        0.90977584       0.90977584      -0.90977584
C       -0.00465871       1.77757030       0.00794375
H       -0.66225468       2.44313916      -0.64384735
H        0.64322798       2.43503045       0.67728295
C       -1.78241447       0.00034974      -0.00472694
H       -2.45427497      -0.65498947       0.64260836
H       -2.43311707       0.67328779      -0.65473579
C       -0.91132561       0.90220522       0.91563759
C       -0.01476271      -0.02253852       1.78660255
H       -0.67934791      -0.69751639       2.42135241
H        0.63392994       0.61504881       2.47327442
C        0.01484550      -1.77751727      -0.01636693
H        0.67870853      -2.42144646      -0.68295456
H       -0.62264859      -2.45592969       0.64226336
C        1.78714474       0.01002794       0.00389507
H        2.44202412       0.67113390       0.66197326
H        2.45385902      -0.65136977      -0.64189061
C        0.91606151      -0.90478549       0.90901405
