149
Properties=species:S:1:pos:R:3 pbc="F F F"
C        0.00000000       0.00000000       0.00000000
C        4.40872320       3.92316906      -2.73951642
O        3.26074514       3.30456148      -3.32044577
C        2.50194722       2.52035939      -2.49698229
C        3.04208308       1.82134524      -1.40705556
C        2.23600345       1.00838779      -0.60117792
C        0.88082557       0.88082557      -0.88082557
C        0.32850858       1.54878793      -1.96581977
C        1.14045470       2.36044212      -2.77911463
S        0.29761229       3.14214225      -4.12366910
O       -0.17703370       2.08975800      -5.00187125
O       -0.63641656       4.08407186      -3.54068288
N        1.40686284       4.04233579      -4.99907604
N        0.95994744       4.77698188      -6.15826955
C        1.80401715       5.68553877      -6.76708866
O        2.94011497       5.89406771      -6.33825543
C        1.23094058       6.36838058      -7.92135096
C        0.02435779       6.13849786      -8.58103915
C       -0.07424048       7.05705441      -9.64024793
C        1.04753406       7.83865578      -9.63895241
N        1.83788575       7.41857776      -8.59791818
C        3.11566449       8.01648543      -8.26707392
H        4.83068791       4.60142597      -3.48722845
H        5.18169720       3.18974376      -2.49256332
H        4.12860732       4.51742495      -1.86341933
H        4.09973214       1.86900464      -1.16589521
H        2.67992430       0.47521079       0.23662200
H       -0.73252383       1.44476056      -2.18959241
H        2.36475919       4.15736100      -4.64905558
H       -0.00337427       4.64219652      -6.44598426
H       -0.71016733       5.38262371      -8.33658120
H        1.34917835       8.65152401     -10.28691362
H        3.06492235       8.40284152      -7.24641611
H        3.32039695       8.84001500      -8.95693914
H        3.89270770       7.25536454      -8.36985845
C       -1.18439535       7.12978655     -10.55450511
C       -2.11415006       7.19069972     -11.32019550
Br      -3.61748478       7.28919117     -12.55825210
C       -3.48815230      -2.95110728      -4.63214910
O       -3.31842232      -3.30718882      -3.26014125
C       -2.51779082      -2.49334068      -2.50815740
C       -1.44306803      -1.77458506      -3.05283079
C       -0.63060850      -0.97017383      -2.24478684
C       -0.88082557      -0.88082557      -0.88082557
C       -1.92773237      -1.59824229      -0.31714162
C       -2.73978198      -2.41151336      -1.12871610
S       -4.02810682      -3.26622452      -0.26909230
O       -3.39064091      -4.18185041       0.65789576
O       -4.94765401      -2.25719860       0.21651443
N       -4.87641116      -4.20160928      -1.37025424
N       -5.98377275      -5.00355620      -0.90786991
C       -6.82248782      -5.61360607      -1.82055070
O       -6.65349706      -5.48474409      -3.03419696
C       -7.90712974      -6.38684603      -1.22669634
C       -8.13577284      -6.71665124       0.10852928
C       -9.31239426      -7.48275405       0.17208645
C       -9.80217472      -7.62672074      -1.09624678
N       -8.94831764      -6.96360368      -1.94246037
C       -9.14060257      -6.88225738      -3.37636389
H       -4.24093365      -3.62278195      -5.05562673
H       -2.56657622      -3.09364216      -5.20378591
H       -3.85983032      -1.92519703      -4.72442425
H       -1.19282263      -1.83404090      -4.10776847
H        0.19781212      -0.42481832      -2.69150688
H       -2.12109983      -1.53369434       0.75296503
H       -4.68026013      -4.11684364      -2.37407201
H       -6.14519792      -5.03275073       0.09314215
H       -7.51813803      -6.44532635       0.95442680
H      -10.67894732      -8.14249019      -1.46617846
H       -9.22801611      -5.82984484      -3.65631903
H      -10.05990036      -7.40788160      -3.64956914
H       -8.28991031      -7.35917273      -3.86884765
C       -9.87458301      -8.01262734       1.38731404
C      -10.34541608      -8.45639623       2.40506715
Br     -11.10671335      -9.17393298       4.05068785
C       -4.25963281       4.10889185       2.70288402
O       -3.26323554       3.29757172       3.32494512
C       -2.49937028       2.52065114       2.49926748
C       -2.97610596       2.01304663       1.28133129
C       -2.17078968       1.20015777       0.47462172
C       -0.88082557       0.88082557       0.88082557
C       -0.39481031       1.35684719       2.09145878
C       -1.20695041       2.16836029       2.90470074
S       -0.45329887       2.69370855       4.41641622
O       -0.20384500       1.50355102       5.20719953
O        0.63996707       3.57329387       4.05501138
N       -1.55681647       3.62177190       5.26968631
N       -1.17660071       4.16833805       6.55026010
C       -1.98537673       5.10132502       7.16994283
O       -3.03244948       5.49017527       6.64981336
C       -1.48562753       5.58208517       8.45295942
C       -0.39912430       5.13885855       9.20591194
C       -0.33083740       5.91966141      10.37256305
C       -1.35375027       6.82639717      10.34499480
N       -2.05334179       6.61898305       9.18205684
C       -3.21021338       7.39865493       8.79035554
H       -4.69333636       4.74878424       3.47722173
H       -5.07148714       3.50482815       2.28768900
H       -3.81371046       4.75570508       1.94003606
H       -3.98567273       2.21351574       0.93544353
H       -2.56515459       0.81752259      -0.46416408
H        0.61413540       1.10221037       2.41375416
H       -2.44757629       3.88839154       4.83520794
H       -0.27509751       3.88825797       6.92145102
H        0.27401817       4.33060914       8.95244660
H       -1.64222226       7.59534420      11.05004951
H       -2.99556151       7.88348616       7.83513230
H       -3.40695271       8.16193601       9.54846238
H       -4.07122812       6.73017210       8.71653047
C        0.66232425       5.75935143      11.40286913
C        1.49409714       5.62509181      12.26575048
Br       2.83900354       5.40800538      13.66095665
C        3.53266387      -2.92173001       4.61701480
O        3.31715832      -3.30871227       3.25988181
C        2.51816944      -2.49360820       2.50751126
C        1.47742825      -1.73249170       3.06056393
C        0.66487731      -0.92796005       2.25273181
C        0.88082557      -0.88082557       0.88082557
C        1.89329734      -1.64035577       0.30946318
C        2.70530249      -2.45363835       1.12107060
S        3.94755236      -3.36450970       0.25136158
O        3.26196682      -4.28658565      -0.63395692
O        4.87973506      -2.39336586      -0.28476275
N        4.80034355      -4.29325822       1.35467291
N        5.87373459      -5.13623970       0.88522458
C        6.72037118      -5.74452492       1.79174849
O        6.58725401      -5.57967862       3.00550548
C        7.76829456      -6.56163173       1.19074583
C        7.95255072      -6.93203614      -0.14069205
C        9.10673451      -7.73067590      -0.21434856
C        9.62629588      -7.85463608       1.04421028
N        8.81287130      -7.14717496       1.89433544
C        9.04542409      -7.03372964       3.32007012
H        4.27876187      -3.60202481       5.03855565
H        2.62328444      -3.02469345       5.21602640
H        3.93322694      -1.90405694       4.67216772
H        1.25397795      -1.75779015       4.12286390
H       -0.13685766      -0.34924694       2.70612381
H        2.05963662      -1.60884456      -0.76665204
H        4.63333568      -4.17720916       2.36063093
H        6.00756080      -5.19575610      -0.11851040
H        7.31981513      -6.66640675      -0.97718431
H       10.49892370      -8.38383712       1.40485516
H        9.16762057      -5.97710192       3.56945749
H        9.95770861      -7.57642948       3.58321300
H        8.19607000      -7.47479227       3.84706842
C        9.62230566      -8.30679460      -1.42920396
C       10.05409650      -8.78929402      -2.44664535
Br      10.75226576      -9.56945476      -4.09176203
