166
Properties=species:S:1:pos:R:3 pbc="F F F"
C        3.55856252       1.25923018       2.99001245
C        4.89485712       1.97232308       2.82066281
C        5.52670798       1.76555447       1.42966784
H        5.64054369       0.68399023       1.28327580
N        4.68583261       2.28205334       0.35954327
C        3.86802412       1.45137861      -0.38406524
O        3.77251618       0.24942786      -0.18786467
C        3.13509738       2.09810409      -1.50243785
C        3.84760002       2.97150607      -2.34259679
C        3.23348561       3.53399640      -3.46336543
C        1.90967986       3.22125175      -3.76138932
C        1.19214375       2.35851245      -2.92971251
C        1.79787183       1.79787183      -1.79787183
C        6.90793569       2.40216946       1.33356698
C        8.00997303       1.61617691       0.95511079
C        9.28640768       2.17508655       0.84879801
C        9.47113094       3.52895840       1.11246354
C        8.39192509       4.32923791       1.48102598
C        7.11625286       3.76804209       1.58948100
H        3.20625572       1.36335690       4.02061309
H        3.64790692       0.19099320       2.76846095
H        2.79381025       1.68861770       2.33527812
H        5.58502363       1.59570630       3.58580467
H        4.74350211       3.03704932       3.02858247
H        4.67875185       3.27908890       0.19339048
H        4.89523898       3.18886546      -2.15345983
H        3.79556542       4.19850971      -4.11508851
H        1.43592815       3.64333637      -4.64397632
H        0.15837869       2.12667930      -3.17730420
H        7.88036711       0.55630712       0.73954960
H       10.12402554       1.54631304       0.55945205
H        8.53274027       5.38694155       1.68620683
H        6.28688610       4.41006482       1.87772568
C       10.78482196       4.10792547       1.00015574
C       11.88503819       4.59281039       0.90609795
Br      13.66399477       5.37682830       0.75401447
C        3.08958543      -1.57737088      -3.33999480
C        3.02309182      -2.61909399      -4.45051522
C        2.06120558      -3.78334940      -4.14045079
H        2.39550451      -4.23761707      -3.19914556
N        0.68834928      -3.33260512      -3.96408684
C        0.14472403      -3.14088702      -2.70730498
O        0.76951822      -3.30831451      -1.67101242
C       -1.29271314      -2.76818511      -2.67474107
C       -2.18109508      -3.48751217      -3.49309562
C       -3.55449737      -3.24282524      -3.43352482
C       -4.05325781      -2.28871719      -2.55034593
C       -3.17792970      -1.56544599      -1.73699302
C       -1.79787183      -1.79787183      -1.79787183
C        2.10162136      -4.85614193      -5.22201759
C        2.38566022      -6.18685451      -4.86984485
C        2.41941547      -7.19328859      -5.83882310
C        2.16096414      -6.87897070      -7.16961924
C        1.86882384      -5.56827166      -7.54068920
C        1.83806389      -4.56227695      -6.57060087
H        3.85355151      -0.82958671      -3.57296432
H        3.34608162      -2.03652036      -2.38000042
H        2.13586677      -1.05148836      -3.23152824
H        4.03196832      -3.02122169      -4.60567189
H        2.73907844      -2.11206932      -5.37897807
H        0.14345491      -3.11954222      -4.78836295
H       -1.81525068      -4.26946076      -4.15285283
H       -4.23587578      -3.81258829      -4.06069956
H       -5.12377041      -2.11037006      -2.48910037
H       -3.58536274      -0.82291168      -1.05408778
H        2.58408682      -6.44969661      -3.83151484
H        2.64632675      -8.21398298      -5.54323029
H        1.66524649      -5.31997219      -8.57874928
H        1.60716625      -3.54561378      -6.88077771
C        2.19168072      -7.91490789      -8.16936452
C        2.21740585      -8.78250530      -9.00665118
Br       2.25900122     -10.18533692     -10.36047291
C       -3.49435257       1.35645935      -3.02303167
C       -4.82235785       2.08692559      -2.86276606
C       -5.47797520       1.86913044      -1.48451103
H       -5.60995456       0.78735008      -1.35604653
N       -4.64569987       2.35710396      -0.39446116
C       -3.85148875       1.50337054       0.34860868
O       -3.77081305       0.30315202       0.13584364
C       -3.12593805       2.12244750       1.48725377
C       -3.83797797       2.99392841       2.32979649
C       -3.23249332       3.53053461       3.46781950
C       -1.91806757       3.19361224       3.78064111
C       -1.20096496       2.33259092       2.94681283
C       -1.79787183       1.79787183       1.79787183
C       -6.85093511       2.52489117      -1.39928811
C       -7.97001067       1.75000376      -1.04897528
C       -9.23950150       2.32635455      -0.95315983
C       -9.40023505       3.68659002      -1.19919927
C       -8.30392323       4.47595736      -1.53974356
C       -7.03519630       3.89736395      -1.63774631
H       -3.12513606       1.47050312      -4.04663966
H       -3.60277593       0.28652608      -2.81886285
H       -2.73324295       1.76461714      -2.35071025
H       -5.50646370       1.73203941      -3.64357785
H       -4.65219382       3.15221796      -3.05244282
H       -4.62638566       3.35135855      -0.21329395
H       -4.87933924       3.22973838       2.12848664
H       -3.79440408       4.19370123       4.12105832
H       -1.45141768       3.59546587       4.67635730
H       -0.17456460       2.08165502       3.20614258
H       -7.85931882       0.68524200      -0.84743619
H      -10.09055821       1.70600356      -0.68567525
H       -8.42600946       5.53856818      -1.73110265
H       -6.19220969       4.53106867      -1.90405311
C      -10.70676763       4.28346377      -1.09763971
C      -11.80098866       4.78334554      -1.01258358
Br     -13.57025153       5.59161208      -0.87505501
C       -2.48230195      -0.18793981       4.12214240
C       -2.35724504      -0.99449221       5.40927021
C       -1.72282959      -2.38413801       5.20128619
H       -2.34086629      -2.91555037       4.46657403
N       -0.36753160      -2.29890905       4.67696523
C       -0.09922345      -2.47113795       3.33155347
O       -0.96382352      -2.67953809       2.49409414
C        1.33624973      -2.44876796       2.95062163
C        2.23979382      -3.18842462       3.73348443
C        3.58430562      -3.27880753       3.36773428
C        4.03538626      -2.64310675       2.21382792
C        3.14618982      -1.90173627       1.43244262
C        1.79787183      -1.79787183       1.79787183
C       -1.71231132      -3.20133585       6.48751363
C       -2.30932251      -4.47362026       6.50674140
C       -2.30590074      -5.24963424       7.66896272
C       -1.69729323      -4.76297348       8.82194555
C       -1.09191169      -3.50819049       8.82385822
C       -1.09853128      -2.73211766       7.66122757
H       -3.02179774       0.74418525       4.31498252
H       -3.03111894      -0.74521252       3.35634558
H       -1.49838718       0.07725718       3.72279419
H       -3.36044588      -1.12018984       5.83518130
H       -1.78049599      -0.40353467       6.12893028
H        0.38071493      -2.06770248       5.31603286
H        1.89652385      -3.73101111       4.61002930
H        4.27387635      -3.86346074       3.97182655
H        5.07772070      -2.72811760       1.91740254
H        3.51667926      -1.41058374       0.53509920
H       -2.78433605      -4.87089202       5.61056866
H       -2.77828324      -6.22813960       7.66103016
H       -0.61471405      -3.12604698       9.72214206
H       -0.61975283      -1.75568952       7.68328856
C       -1.68938115      -5.56221991      10.01975294
C       -1.68275479      -6.23158880      11.02291662
Br      -1.67204053      -7.31390168      12.64494746
C       -0.00445707       0.01189536      -1.78238275
H       -0.66409135       0.67374010      -2.43557963
H        0.65740317      -0.63156657      -2.45157240
C       -0.90989263      -0.90692880      -0.91072765
C        0.90977584       0.90977584      -0.90977584
C       -0.00465871       1.77757030       0.00794375
H       -0.66225468       2.44313916      -0.64384735
H        0.64322798       2.43503045       0.67728295
C       -1.78241447       0.00034974      -0.00472694
H       -2.45427497      -0.65498947       0.64260836
H       -2.43311707       0.67328779      -0.65473579
C       -0.91132561       0.90220522       0.91563759
C       -0.01476271      -0.02253852       1.78660255
H       -0.67934791      -0.69751639       2.42135241
H        0.63392994       0.61504881       2.47327442
C        0.01484550      -1.77751727      -0.01636693
H        0.67870853      -2.42144646      -0.68295456
H       -0.62264859      -2.45592969       0.64226336
C        1.78714474       0.01002794       0.00389507
H        2.44202412       0.67113390       0.66197326
H        2.45385902      -0.65136977      -0.64189061
C        0.91606151      -0.90478549       0.90901405
