174
Properties=species:S:1:pos:R:3 pbc="F F F"
C        1.79183469       1.79183469      -1.79183469
C        3.17564246       1.63135466      -1.76331541
C        3.97918257       2.42803545      -2.57802953
C        3.39808169       3.38325387      -3.41393144
C        2.00597462       3.55956303      -3.43742252
C        1.20403144       2.74586627      -2.62304658
C        1.37729102       4.57188650      -4.36817044
N        1.03214125       3.98006043      -5.63929088
C        1.89373316       3.84256913      -6.67480622
O        3.04648778       4.23470561      -6.74227187
N        1.25942303       3.16627739      -7.68020898
C       -0.10567392       2.79175019      -7.37352505
C       -0.25350123       1.27355936      -7.24618688
C       -0.16371801       3.39080185      -5.93497293
O       -1.11306280       3.30951923      -5.16111299
C       -1.10353040       3.37295484      -8.38043387
C       -2.32746671       3.91382956      -7.92706700
C       -3.28402380       4.43100760      -8.80743165
C       -3.05286343       4.41818864     -10.17446969
C       -1.87173892       3.87020506     -10.66090523
C       -0.91273308       3.34016002      -9.78204698
H        3.63570011       0.88783528      -1.11793930
H        5.05916855       2.30106834      -2.56826246
H        4.03914591       3.98503677      -4.05761058
H        0.12104097       2.85425032      -2.64570438
H        2.07361219       5.40252244      -4.53588895
H        0.47642749       4.99054231      -3.90412139
H        1.72976036       2.97465429      -8.55486220
H        0.43042668       0.86697739      -6.49073588
H       -0.03829886       0.75911654      -8.18726284
H       -1.27156505       1.00124324      -6.94302634
H       -2.58337834       3.93319211      -6.86951496
H       -4.21498102       4.83684130      -8.41726772
H       -3.79439490       4.81852679     -10.86084957
H       -1.70958240       3.84834660     -11.73689214
C        0.22973680       2.74630299     -10.42679221
C        1.18655532       2.24894774     -10.96676634
Br       2.73364995       1.44476635     -11.83985884
C       -1.79183469      -1.79183469      -1.79183469
C       -1.63068732      -3.17557976      -1.76404545
C       -2.44467268      -3.98074574      -2.55982914
C       -3.41242255      -3.40082226      -3.38202219
C       -3.57076441      -2.00702706      -3.42516871
C       -2.75539251      -1.20492649      -2.61262529
C       -4.64197747      -1.38387649      -4.29149400
N       -5.87716853      -1.21038605      -3.56393799
C       -6.81817312      -2.17330919      -3.41962620
O       -6.82343385      -3.28971449      -3.91031693
N       -7.80653719      -1.69540356      -2.60396865
C       -7.58370571      -0.34455934      -2.13133627
C       -7.32848024      -0.31539528      -0.62236949
C       -6.21744842      -0.10186256      -2.84274578
O       -5.52309055       0.90508436      -2.73956323
C       -8.72174119       0.60097950      -2.52909663
C       -8.42669330       1.90345582      -2.99019237
C       -9.42971138       2.81436529      -3.33906935
C      -10.76491694       2.45654985      -3.23142781
C      -11.09575374       1.19285483      -2.75647247
C      -10.09282210       0.27827955      -2.39493137
H       -0.88198204      -3.63515016      -1.12434250
H       -2.33113624      -5.06199361      -2.53536949
H       -4.05241958      -4.04547694      -3.98389674
H       -2.88024044      -0.12348290      -2.61727233
H       -4.82644609      -2.01948632      -5.16609116
H       -4.29741615      -0.41130409      -4.66237095
H       -8.61625656      -2.25982308      -2.38319721
H       -6.48291159      -0.95807773      -0.34715063
H       -8.19573980      -0.66041696      -0.05192375
H       -7.08910356       0.69957368      -0.28317465
H       -7.40121500       2.25753657      -3.07565031
H       -9.15981262       3.80881167      -3.68812705
H      -11.54629320       3.16228048      -3.50096874
H      -12.14727455       0.92984783      -2.65822962
C      -10.57971908      -0.96573372      -1.85737921
C      -10.98749530      -2.00759483      -1.40717928
Br     -11.64683496      -3.69219612      -0.67924406
C       -1.79183469       1.79183469       1.79183469
C       -3.01874577       1.30905806       2.24250871
C       -3.81747471       2.10984260       3.05793025
C       -3.38963984       3.38949006       3.41613710
C       -2.16131309       3.88716841       2.95447868
C       -1.35857277       3.07048453       2.14388700
C       -1.68552229       5.26058133       3.37124435
N       -0.88097505       5.20162483       4.56889268
C       -1.38458420       5.20068555       5.82583876
O       -2.55194969       5.31045354       6.16106203
N       -0.35029002       5.04802891       6.70759047
C        0.95012559       4.92861451       6.08111241
C        1.53754643       3.52853702       6.27525442
C        0.47415812       5.03616685       4.60004804
O        1.18948279       4.93985694       3.60719528
C        1.91975758       6.01724068       6.55237521
C        2.76549942       6.65884669       5.62008257
C        3.68766814       7.63877472       6.00330887
C        3.80176699       8.00619619       7.33536569
C        3.00540340       7.37864727       8.28612751
C        2.08542278       6.38680069       7.90809601
H       -3.35763141       0.31285702       1.97098625
H       -4.77151989       1.73544366       3.42153578
H       -4.01762503       3.99530194       4.06886629
H       -0.39283234       3.43261216       1.79555117
H       -2.54910736       5.91257300       3.55034322
H       -1.10028349       5.71034920       2.56045850
H       -0.51527081       5.03859434       7.70541170
H        0.86017034       2.75411680       5.89419348
H        1.72500164       3.30381299       7.32926917
H        2.48759732       3.42229189       5.73800996
H        2.74504057       6.40146012       4.56290919
H        4.32204055       8.10730211       5.25386645
H        4.51774804       8.76655127       7.63617824
H        3.11712024       7.66169850       9.33107808
C        1.37645074       5.77645523       9.00282751
C        0.78268666       5.26529091       9.91966515
Br      -0.17737965       4.43878144      11.40211406
C        1.79183469      -1.79183469       1.79183469
C        1.36001350      -2.14035946       3.06993957
C        2.15982583      -2.95584771       3.86957401
C        3.38795895      -3.41603359       3.39127447
C        3.83517687      -3.05755977       2.11022353
C        3.01899647      -2.24614042       1.30780741
C        5.15041401      -3.58462183       1.58231213
N        4.97306892      -4.82089498       0.85752867
C        4.93037996      -6.04419853       1.43653002
O        5.09201367      -6.31748610       2.61396550
N        4.66383021      -6.97323003       0.46884915
C        4.50125563      -6.41682332      -0.85847764
C        3.05889368      -6.55831573      -1.35096440
C        4.72324330      -4.92011819      -0.48130472
O        4.64077204      -3.96623826      -1.24944088
C        5.49926581      -7.00925889      -1.85866639
C        6.14058025      -6.16854323      -2.79569364
C        7.03828057      -6.66384202      -3.74770716
C        7.32039469      -8.02029872      -3.80089851
C        6.68898968      -8.88313466      -2.91275296
C        5.77897869      -8.39240728      -1.96191206
H        0.40384890      -1.78908428       3.44854151
H        1.82428543      -3.24003705       4.86417685
H        3.99241947      -4.06731406       4.02205974
H        3.34070894      -1.97708944       0.30319729
H        5.84272479      -3.75317316       2.41612563
H        5.60953503      -2.83815050       0.92340566
H        4.60687518      -7.95738385       0.69501783
H        2.35082311      -6.09193521      -0.65461838
H        2.76254064      -7.60562426      -1.46008438
H        2.92578306      -6.07138067      -2.32445921
H        5.94647397      -5.09815634      -2.82530157
H        7.50953344      -5.98248702      -4.45289246
H        8.01671990      -8.40808494      -4.53982338
H        6.90377589      -9.94819218      -2.97631173
C        5.15103127      -9.40480765      -1.15300691
C        4.62512530     -10.25269295      -0.47554885
Br       3.77477983     -11.62365177       0.61984354
C       -0.00445707       0.01189536      -1.78238275
H       -0.66409135       0.67374010      -2.43557963
H        0.65740317      -0.63156657      -2.45157240
C       -0.90989263      -0.90692880      -0.91072765
C        0.90977584       0.90977584      -0.90977584
C       -0.00465871       1.77757030       0.00794375
H       -0.66225468       2.44313916      -0.64384735
H        0.64322798       2.43503045       0.67728295
C       -1.78241447       0.00034974      -0.00472694
H       -2.45427497      -0.65498947       0.64260836
H       -2.43311707       0.67328779      -0.65473579
C       -0.91132561       0.90220522       0.91563759
C       -0.01476271      -0.02253852       1.78660255
H       -0.67934791      -0.69751639       2.42135241
H        0.63392994       0.61504881       2.47327442
C        0.01484550      -1.77751727      -0.01636693
H        0.67870853      -2.42144646      -0.68295456
H       -0.62264859      -2.45592969       0.64226336
C        1.78714474       0.01002794       0.00389507
H        2.44202412       0.67113390       0.66197326
H        2.45385902      -0.65136977      -0.64189061
C        0.91606151      -0.90478549       0.90901405
