166
Properties=species:S:1:pos:R:3 pbc="F F F"
C        1.79183469       1.79183469      -1.79183469
C        3.17564246       1.63135466      -1.76331541
C        3.97918257       2.42803545      -2.57802953
C        3.39808169       3.38325387      -3.41393144
C        2.00597462       3.55956303      -3.43742252
C        1.20403144       2.74586627      -2.62304658
C        1.37729102       4.57188650      -4.36817044
N        1.03214125       3.98006043      -5.63929088
C        1.89373316       3.84256913      -6.67480622
O        3.04648778       4.23470561      -6.74227187
N        1.25942303       3.16627739      -7.68020898
C       -0.10567392       2.79175019      -7.37352505
C       -0.25350123       1.27355936      -7.24618688
C       -0.16371801       3.39080185      -5.93497293
O       -1.11306280       3.30951923      -5.16111299
C       -1.10353040       3.37295484      -8.38043387
C       -2.32746671       3.91382956      -7.92706700
C       -3.28402380       4.43100760      -8.80743165
C       -3.05286343       4.41818864     -10.17446969
C       -1.87173892       3.87020506     -10.66090523
C       -0.91273308       3.34016002      -9.78204698
Br       0.60068037       2.55348614     -10.63613173
H        3.63570011       0.88783528      -1.11793930
H        5.05916855       2.30106834      -2.56826246
H        4.03914591       3.98503677      -4.05761058
H        0.12104097       2.85425032      -2.64570438
H        2.07361219       5.40252244      -4.53588895
H        0.47642749       4.99054231      -3.90412139
H        1.72976036       2.97465429      -8.55486220
H        0.43042668       0.86697739      -6.49073588
H       -0.03829886       0.75911654      -8.18726284
H       -1.27156505       1.00124324      -6.94302634
H       -2.58337834       3.93319211      -6.86951496
H       -4.21498102       4.83684130      -8.41726772
H       -3.79439490       4.81852679     -10.86084957
H       -1.70958240       3.84834660     -11.73689214
C       -1.79183469      -1.79183469      -1.79183469
C       -1.60961698      -1.78745987      -3.17323568
C       -2.40647436      -2.60227703      -3.97649617
C       -3.38350559      -3.41415617      -3.39760525
C       -3.58159781      -3.41313009      -2.00823228
C       -2.76770925      -2.59893832      -1.20629673
C       -4.61793859      -4.31820722      -1.38120216
N       -4.05147528      -5.59273980      -1.00727749
C       -3.91694794      -6.64361297      -1.85054760
O       -4.29227748      -6.72306470      -3.00812309
N       -3.26633656      -7.64926706      -1.19030578
C       -2.90814006      -7.32705906       0.17559780
C       -1.39060075      -7.22083866       0.34519441
C       -3.48542083      -5.87871172       0.20207578
O       -3.40667596      -5.09142916       1.14053569
C       -3.52034881      -8.30914443       1.17963492
C       -4.07286106      -7.82838887       2.38782009
C       -4.61844098      -8.68559407       3.34961960
C       -4.62346342     -10.05611864       3.13978716
C       -4.06502163     -10.56937423       1.97502448
C       -3.50656365      -9.71391173       1.01100146
Br      -2.71012295     -10.60360905      -0.47656625
H       -0.84908219      -1.16090245      -3.63149005
H       -2.26273814      -2.61137689      -5.05438431
H       -3.98533890      -4.05844015      -4.03801421
H       -2.89311501      -2.60296546      -0.12491520
H       -5.44026666      -4.48398299      -2.08777392
H       -5.04311437      -3.83371373      -0.49426309
H       -3.08120293      -8.53402611      -1.64404781
H       -0.96174807      -6.48254414      -0.34384774
H       -0.88769782      -8.17298613       0.15260344
H       -1.12929667      -6.90601065       1.36260279
H       -4.07960724      -6.76678727       2.62706576
H       -5.03241830      -8.27469440       4.26798470
H       -5.04588037     -10.72455315       3.88545205
H       -4.05751388     -11.64797697       1.82983451
C       -1.79183469       1.79183469       1.79183469
C       -1.43968279       3.12251187       2.00811787
C       -2.25196935       3.93037783       2.80290038
C       -3.40915505       3.40526138       3.38085057
C       -3.76240188       2.06220065       3.17835764
C       -2.94565831       1.25941290       2.36787308
C       -5.03372343       1.50531016       3.77831437
N       -6.14862796       1.63325851       2.86960609
C       -6.91304785       2.74485620       2.75320447
O       -6.84322502       3.76955776       3.41068249
N       -7.81442499       2.54786886       1.74361555
C       -7.70667908       1.25672250       1.09619975
C       -7.21987540       1.39479112      -0.34842151
C       -6.51827460       0.70320352       1.94057865
O       -5.96142474      -0.37796639       1.77411108
C       -9.01269342       0.45978004       1.17738485
C       -8.97703625      -0.92396835       1.46036195
C      -10.13849193      -1.70193455       1.51785806
C      -11.37728009      -1.12383425       1.28634906
C      -11.45103503       0.22963342       0.97870293
C      -10.28713467       1.01293739       0.90940186
Br     -10.57724085       2.82482947       0.38822792
H       -0.54234289       3.53993115       1.55920064
H       -1.98846592       4.97251655       2.96751687
H       -4.04241509       4.05505093       3.98432725
H       -3.21707718       0.22161496       2.18230352
H       -5.26655726       2.03592325       4.70954307
H       -4.88989526       0.44852858       4.03266735
H       -8.49305465       3.25943638       1.50678581
H       -6.26097417       1.92561858      -0.39845281
H       -7.92898312       1.94915625      -0.97005885
H       -7.07113352       0.41098152      -0.80941052
H       -8.03694965      -1.44583501       1.62821410
H      -10.06716432      -2.76515875       1.73712244
H      -12.28118975      -1.72577794       1.32956965
H      -12.42705119       0.66839633       0.78020882
C        1.79183469      -1.79183469       1.79183469
C        2.52227441      -2.83028508       1.21775304
C        3.33692186      -3.62686057       2.02146512
C        3.41542377      -3.38561131       3.39423193
C        2.67180108      -2.35010791       3.98105119
C        1.86353330      -1.54606023       3.16335077
C        2.78449988      -2.07015607       5.46269201
N        3.81393478      -1.09653843       5.74101936
C        5.12615666      -1.39616149       5.88879036
O        5.64421633      -2.50010308       5.87914586
N        5.82154123      -0.23013284       6.05423533
C        4.99798380       0.96090140       6.02251892
C        5.29314974       1.81166087       4.78475614
C        3.62691542       0.25524541       5.79038675
O        2.54828410       0.81797655       5.62726187
C        5.11837729       1.78012839       7.31160942
C        3.96386158       2.34686120       7.89642946
C        4.02356634       3.12608270       9.05693181
C        5.24273488       3.37249169       9.66955171
C        6.40425500       2.85404158       9.10915796
C        6.35100951       2.07986299       7.93832740
Br       8.05093531       1.53035852       7.26972145
H        2.46933760      -3.02264433       0.14949276
H        3.91755524      -4.43255130       1.57839280
H        4.07081443      -4.00589495       4.00508389
H        1.29750769      -0.72449886       3.59898912
H        3.01456610      -2.99928293       5.99817455
H        1.82366645      -1.70403968       5.84338506
H        6.82257165      -0.23814828       6.19855691
H        5.16074443       1.23401519       3.86141070
H        6.31831153       2.19327299       4.78304198
H        4.61700376       2.67318352       4.72888429
H        2.97858079       2.21333147       7.45407942
H        3.11075430       3.54587824       9.47425194
H        5.29234231       3.97806541      10.57070457
H        7.35745952       3.06985985       9.58805666
C       -0.00445707       0.01189536      -1.78238275
H       -0.66409135       0.67374010      -2.43557963
H        0.65740317      -0.63156657      -2.45157240
C       -0.90989263      -0.90692880      -0.91072765
C        0.90977584       0.90977584      -0.90977584
C       -0.00465871       1.77757030       0.00794375
H       -0.66225468       2.44313916      -0.64384735
H        0.64322798       2.43503045       0.67728295
C       -1.78241447       0.00034974      -0.00472694
H       -2.45427497      -0.65498947       0.64260836
H       -2.43311707       0.67328779      -0.65473579
C       -0.91132561       0.90220522       0.91563759
C       -0.01476271      -0.02253852       1.78660255
H       -0.67934791      -0.69751639       2.42135241
H        0.63392994       0.61504881       2.47327442
C        0.01484550      -1.77751727      -0.01636693
H        0.67870853      -2.42144646      -0.68295456
H       -0.62264859      -2.45592969       0.64226336
C        1.78714474       0.01002794       0.00389507
H        2.44202412       0.67113390       0.66197326
H        2.45385902      -0.65136977      -0.64189061
C        0.91606151      -0.90478549       0.90901405
