173
Properties=species:S:1:pos:R:3 pbc="F F F"
C        0.00000000       0.00000000       0.00000000
C        3.32549312       4.74585056      -6.71503957
N        4.29055333       4.94717160      -5.63498389
C        3.65276134       5.54763490      -4.44134363
C        2.69304156       4.62019374      -3.65311774
N        3.33685596       3.32519051      -3.33511914
C        3.99622398       2.68498173      -4.49204087
C        4.92961006       3.67586034      -5.22485844
C        2.52325328       2.49907190      -2.52468075
C        1.86743306       1.36325486      -3.03182369
C        1.05084261       0.56438350      -2.22356938
C        0.88138376       0.88138376      -0.88138376
C        1.51436134       1.99226947      -0.33708271
C        2.31402472       2.80129298      -1.15423353
N        3.02450309       3.89373580      -0.53805158
S        4.49870829       3.43632550       0.18483682
O        4.22539798       3.19589359       1.58554572
O        5.16415337       2.42838493      -0.61560304
C        5.43175363       4.94177043       0.06137931
C        6.61690244       4.91836327      -0.69130297
C        7.39773279       6.06774856      -0.81150355
C        7.00239150       7.24432760      -0.18219824
C        5.82559357       7.27276644       0.56756068
C        5.03261000       6.12356486       0.69592951
Br       3.44604745       6.32072022       1.72400266
H        3.81467113       4.29854425      -7.58759577
H        2.91998391       5.70887078      -7.04458233
H        2.48265039       4.10489210      -6.43703799
H        3.12235842       6.46482496      -4.72591738
H        4.45564538       5.86976942      -3.76452287
H        2.39808414       5.15199415      -2.74165211
H        1.78092442       4.44825079      -4.23819506
H        4.59550987       1.83191603      -4.15092018
H        3.25751080       2.31484947      -5.21188073
H        5.77287744       3.91919938      -4.56506661
H        5.37066523       3.18308134      -6.10029723
H        1.96096816       1.07882388      -4.07472281
H        0.55917798      -0.30336209      -2.65598391
H        1.40296829       2.21747156       0.71980614
H        2.46328721       4.31610229       0.20412692
H        6.94067388       4.00627164      -1.18979733
H        8.31431976       6.04262346      -1.39639376
H        7.60950612       8.14177916      -0.27523948
H        5.53418892       8.20377684       1.05025891
C       -5.50565292      -6.26756623      -3.01316409
N       -5.24384593      -5.43932254      -4.18954036
C       -5.64565398      -4.03230650      -3.96377940
C       -4.75864756      -3.22915634      -2.97854914
N       -3.32535176      -3.33748035      -3.33433349
C       -2.87258804      -4.72266485      -3.57799369
C       -3.81138235      -5.45437239      -4.56457410
C       -2.50063923      -2.52932223      -2.51704446
C       -1.67420571      -3.07148321      -1.51682269
C       -0.87648688      -2.25935554      -0.70295307
C       -0.88138376      -0.88138376      -0.88138376
C       -1.67948016      -0.30319241      -1.86104095
C       -2.49232137      -1.11763851      -2.65959135
N       -3.24016801      -0.49378680      -3.72233566
S       -2.34114496      -0.25799863      -5.15105338
O       -1.82255889       1.09236792      -5.10555487
O       -1.45054714      -1.37781312      -5.37978108
C       -3.61922176      -0.31063914      -6.38228385
C       -3.55058658      -1.32065802      -7.35532407
C       -4.51939742      -1.40227599      -8.35531148
C       -5.55946866      -0.47835520      -8.39109348
C       -5.63197148       0.52782014      -7.42664800
C       -4.66370066       0.62021163      -6.41675632
Br      -4.90803922       2.02407348      -5.15879927
H       -5.19951235      -7.30335995      -3.19793886
H       -6.58005875      -6.29335946      -2.80001880
H       -4.99306164      -5.92178122      -2.10973762
H       -6.68985162      -3.99369671      -3.62955243
H       -5.62908475      -3.52367684      -4.93717608
H       -5.09762955      -2.18757594      -3.00652491
H       -4.91663889      -3.59459609      -1.95613530
H       -1.86199210      -4.71196910      -4.00438487
H       -2.84161831      -5.29724181      -2.64538088
H       -3.71628908      -4.98717716      -5.55367719
H       -3.47214497      -6.48996462      -4.69193420
H       -1.64163617      -4.14026504      -1.33261363
H       -0.25430663      -2.71855813       0.06106496
H       -1.65585204       0.77171001      -2.01649169
H       -3.56864120       0.43099856      -3.43761994
H       -2.74355722      -2.05124693      -7.34193869
H       -4.46032614      -2.18741806      -9.10559277
H       -6.31622666      -0.54068244      -9.16961565
H       -6.45453254       1.23915755      -7.47233187
C       -5.70823909       6.10166836       2.97647580
N       -5.32125417       5.36965883       4.18179582
C       -5.64336729       3.92891789       4.06945470
C       -4.76786113       3.11901356       3.07947836
N       -3.32559346       3.33801835       3.33355379
C       -2.95020597       4.76130891       3.46173170
C       -3.87254164       5.49697110       4.46081610
C       -2.50150731       2.53027864       2.51521998
C       -1.77513852       3.05558234       1.43179075
C       -0.97746855       2.24245748       0.61886947
C       -0.88138376       0.88138376       0.88138376
C       -1.57843631       0.32058841       1.94468881
C       -2.39225851       1.13409443       2.74319829
N       -3.03118645       0.53633114       3.88877288
S       -2.03278238       0.44994674       5.26746786
O       -1.43085198      -0.86616813       5.27106199
O       -1.20490040       1.63480183       5.36843911
C       -3.23367369       0.50445480       6.57401626
C       -3.17164336       1.57818842       7.47673690
C       -4.08058265       1.66541094       8.53099130
C       -5.05391797       0.68377818       8.69122120
C       -5.11952456      -0.38580298       7.79707776
C       -4.21102650      -0.48443585       6.73365470
Br      -4.43979174      -1.97981429       5.58278757
H       -5.45966963       7.16413698       3.07700454
H       -6.79307692       6.04756301       2.83279708
H       -5.23050671       5.72967934       2.06439442
H       -6.70133430       3.80461028       3.80715618
H       -5.53395861       3.48694133       5.06903774
H       -5.03571850       2.06266702       3.19334488
H       -5.01177378       3.40650339       2.04909311
H       -1.91683397       4.84047026       3.82104185
H       -3.01407479       5.27454651       2.49561970
H       -3.68666867       5.10210262       5.46837213
H       -3.59451531       6.55751727       4.50201121
H       -1.82381687       4.11002857       1.18066941
H       -0.43463070       2.68804512      -0.21087602
H       -1.47514957      -0.73838719       2.16387134
H       -3.31537809      -0.42347385       3.68335834
H       -2.41640931       2.35444253       7.36589102
H       -4.02704358       2.50003293       9.22626046
H       -5.76397459       0.75031988       9.51223028
H       -5.88950538      -1.14172518       7.93992666
C        3.51975457      -4.44659084       6.82003783
N        4.35968342      -4.82773122       5.68529418
C        3.56505093      -5.46556425       4.61112470
C        2.61852267      -4.52329702       3.82453335
N        3.33768563      -3.32543088       3.33404911
C        4.15368748      -2.65329268       4.36626642
C        5.06355417      -3.66075312       5.10602154
C        2.52544024      -2.49914303       2.52242266
C        2.01845071      -1.26834573       2.97571518
C        1.20112946      -0.46862519       2.16904084
C        0.88138376      -0.88138376       0.88138376
C        1.36437802      -2.08848251       0.39085298
C        2.16487100      -2.89594591       1.20873432
N        2.71963766      -4.09805586       0.63859695
S        4.15380783      -3.84266847      -0.24627932
O        3.77295607      -3.69775296      -1.63496319
O        4.97395775      -2.83657387       0.39760972
C        4.96300503      -5.41233748      -0.06319777
C        6.21064546      -5.43528644       0.58063676
C        6.89878519      -6.63786302       0.74033668
C        6.34816366      -7.82181132       0.25894236
C        5.10865181      -7.80438154      -0.38223401
C        4.40768103      -6.60155197      -0.54898765
Br       2.72147300      -6.73706862      -1.41577661
H        4.12411172      -3.97416591       7.60253352
H        3.06627686      -5.33627598       7.27088417
H        2.71224101      -3.75604006       6.55629941
H        2.98738859      -6.30200017       5.02371200
H        4.27129543      -5.91723205       3.90141019
H        2.19604745      -5.10089464       2.99478831
H        1.78263066      -4.21827084       4.46646879
H        4.78898317      -1.89167488       3.89768803
H        3.51917787      -2.15631658       5.10874655
H        5.81813696      -4.03655776       4.40244871
H        5.62430234      -3.13850125       5.89124021
H        2.23230268      -0.90626896       3.97594321
H        0.82727229       0.47463311       2.55916062
H        1.13654217      -2.39133095      -0.62723940
H        2.05804816      -4.52797005      -0.01075562
H        6.65564327      -4.51818451       0.96291507
H        7.86455676      -6.64840999       1.24037021
H        6.88284942      -8.76062583       0.38304950
H        4.69562366      -8.74191701      -0.74983381
