194
Properties=species:S:1:pos:R:3 pbc="F F F"
C        4.23539714       5.65575458      -7.62494359
N        5.20045735       5.85707563      -6.54488792
C        4.56266537       6.45753892      -5.35124766
C        3.60294559       5.53009777      -4.56302176
N        4.24675998       4.23509453      -4.24502317
C        4.90612800       3.59488575      -5.40194490
C        5.83951408       4.58576436      -6.13476247
C        3.43315731       3.40897593      -3.43458477
C        2.77733709       2.27315888      -3.94172772
C        1.96074664       1.47428752      -3.13347341
C        1.79128778       1.79128778      -1.79128778
C        2.42426536       2.90217349      -1.24698674
C        3.22392874       3.71119700      -2.06413755
N        3.93440711       4.80363982      -1.44795561
S        5.40861232       4.34622953      -0.72506720
O        5.13530200       4.10579761       0.67564170
O        6.07405739       3.33828895      -1.52550707
C        6.34165766       5.85167445      -0.84852471
C        7.52680646       5.82826729      -1.60120699
C        8.30763681       6.97765258      -1.72140757
C        7.91229553       8.15423162      -1.09210227
C        6.73549760       8.18267046      -0.34234335
C        5.94251403       7.03346889      -0.21397451
Br       4.35595147       7.23062425       0.81409864
H        4.72457515       5.20844828      -8.49749980
H        3.82988793       6.61877480      -7.95448635
H        3.39255441       5.01479612      -7.34694201
H        4.03226244       7.37472899      -5.63582141
H        5.36554941       6.77967345      -4.67442689
H        3.30798817       6.06189818      -3.65155613
H        2.69082845       5.35815482      -5.14809909
H        5.50541389       2.74182005      -5.06082420
H        4.16741483       3.22475350      -6.12178475
H        6.68278146       4.82910340      -5.47497063
H        6.28056925       4.09298537      -7.01020125
H        2.87087218       1.98872790      -4.98462683
H        1.46908200       0.60654193      -3.56588794
H        2.31287232       3.12737559      -0.19009788
H        3.37319124       5.22600631      -0.70577711
H        7.85057790       4.91617566      -2.09970136
H        9.22422378       6.95252748      -2.30629778
H        8.51941014       9.05168318      -1.18514350
H        6.44409294       9.11368087       0.14035489
C       -6.78378181      -6.85862809      -3.87368542
N       -6.29381962      -6.21610692      -5.09249436
C       -6.54084596      -4.75639615      -5.07420983
C       -5.67500975      -3.93993887      -4.08111649
N       -4.23576891      -4.24832825      -4.24278052
C       -3.93382130      -5.69432371      -4.27481363
C       -4.84174504      -6.43479797      -5.28349790
C       -3.41228829      -3.44086022      -3.42356950
C       -2.77426140      -3.94265260      -2.27530969
C       -1.97653537      -3.12872563      -1.46324656
C       -1.79128778      -1.79128778      -1.79128778
C       -2.39917150      -1.25453262      -2.91972147
C       -3.21378208      -2.06718872      -3.71829250
N       -3.75732755      -1.50120456      -4.92747043
S       -2.68448865      -1.54422854      -6.25119186
O       -2.01100473      -0.26385439      -6.29059880
O       -1.91955705      -2.77479178      -6.24350458
C       -3.81612029      -1.60796988      -7.61776665
C       -3.76642199      -2.73197855      -8.45788020
C       -4.62205441      -2.82968567      -9.55495688
C       -5.52955727      -1.80860684      -9.82046531
C       -5.58260063      -0.68902681      -8.98888397
C       -4.72725669      -0.57941013      -7.88329060
Br      -4.93283258       0.98757046      -6.82721496
H       -6.58968644      -7.93664895      -3.90418783
H       -7.86999343      -6.73960090      -3.79355476
H       -6.33478566      -6.46219434      -2.95731255
H       -7.60260798      -4.56219577      -4.87800910
H       -6.35458985      -4.37701613      -6.08804377
H       -5.87739260      -2.87891986      -4.26513002
H       -5.98841244      -4.15649458      -3.05217534
H       -2.88896771      -5.84760624      -4.57148421
H       -4.07686911      -6.14901242      -3.28807154
H       -4.58144684      -6.10685534      -6.29855332
H       -4.62129522      -7.50915552      -5.25330513
H       -2.89460421      -4.97749046      -1.97213225
H       -1.50371984      -3.55547212      -0.58231991
H       -2.22580979      -0.21627814      -3.18825786
H       -3.99816546      -0.51784338      -4.78896582
H       -3.06236967      -3.53954607      -8.26453919
H       -4.57845480      -3.70331010     -10.20128414
H       -6.19801737      -1.88320109     -10.67501836
H       -6.30080183       0.09726634      -9.21388343
C       -6.78734928       6.85514591       3.87360013
N       -6.29516236       6.21466959       5.09258895
C       -6.54046358       4.75464380       5.07634456
C       -5.67483854       3.93803418       4.08319239
N       -4.23577556       4.24833662       4.24276550
C       -3.93552030       5.69472921       4.27270914
C       -4.84312326       6.43532427       5.28159338
C       -3.41230899       3.44087368       3.42353533
C       -2.77625574       3.94205391       2.27391404
C       -1.97852746       3.12810981       1.46187029
C       -1.79128778       1.79128778       1.79128778
C       -2.39717977       1.25515712       2.92108870
C       -3.21180717       2.06779403       3.71966210
N       -3.75322953       1.50260792       4.93016509
S       -2.67886164       1.54849790       6.25254951
O       -2.00379956       0.26897763       6.29268073
O       -1.91541275       2.77996437       6.24247629
C       -3.80893471       1.61252189       7.62040021
C       -3.75957738       2.73759359       8.45910978
C       -4.61401435       2.83559069       9.55709192
C       -5.51997683       1.81374644       9.82490615
C       -5.57267432       0.69310959       8.99472750
C       -4.71852176       0.58319241       7.88824325
Br      -4.92348452      -0.98529527       6.83428783
H       -6.59450763       7.93343370       3.90258190
H       -7.87351269       6.73472486       3.79491154
H       -6.33897459       6.45815284       2.95716511
H       -7.60222619       4.55894000       4.88164665
H       -6.35254214       4.37670002       6.09040758
H       -5.87573163       2.87699499       4.26871586
H       -5.98972961       4.15298385       3.05436889
H       -2.89049706       5.84961522       4.56794588
H       -4.08029123       6.14806563       3.28559622
H       -4.58121992       6.10890776       6.29672782
H       -4.62399536       7.50990762       5.24985289
H       -2.89819895       4.97638370       1.96964427
H       -1.50727604       3.55436668       0.57986914
H       -2.22225505       0.21743263       3.19065811
H       -3.99305599       0.51879459       4.79312408
H       -3.05672342       3.54577003       8.26396147
H       -4.57068770       3.71003934      10.20232200
H       -6.18750394       1.88856421      10.68016867
H       -6.28966476      -0.09377154       9.22152571
C        3.91651092      -6.44446984       7.15511456
N        5.09779496      -6.16484562       6.33978031
C        4.88812022      -6.55603759       4.92729414
C        3.90215432      -5.67065209       4.12325872
N        4.24412928      -4.23528465       4.24746376
C        4.47143959      -3.79278708       5.63873199
C        5.45985217      -4.72930534       6.37088340
C        3.42669289      -3.41065438       3.43937073
C        2.41435139      -2.59800367       3.97986863
C        1.60061080      -1.80029914       3.16759763
C        1.79128778      -1.79128778       1.79128778
C        2.78313229      -2.57546366       1.21482965
C        3.58166960      -3.38844592       2.02914778
N        4.65654996      -4.12123096       1.40822162
S        6.07920304      -3.20750355       1.19320245
O        6.04104131      -2.67728298      -0.15286637
O        6.29001832      -2.32496525       2.32286984
C        7.32130155      -4.47503416       1.24552111
C        8.28469616      -4.40681237       2.26477221
C        9.29254666      -5.36741089       2.34673941
C        9.34582042      -6.39881795       1.41399104
C        8.39102039      -6.47086526       0.39862577
C        7.37336675      -5.51079816       0.30579252
Br       6.13014125      -5.75371246      -1.11137663
H        4.08934960      -6.14598055       8.19519307
H        3.71276440      -7.52091085       7.16947383
H        3.01163659      -5.93683565       6.80582030
H        4.56360240      -7.60277020       4.87644024
H        5.86580084      -6.52629018       4.42755873
H        3.94239436      -6.00004225       3.07900587
H        2.87799492      -5.84096412       4.47812331
H        4.88885202      -2.77839537       5.64081076
H        3.53352972      -3.77522762       6.20519574
H        6.45216821      -4.62127149       5.91341579
H        5.57498648      -4.39822908       7.41054030
H        2.22039013      -2.57663008       5.04720670
H        0.82701683      -1.18904932       3.62544573
H        2.94788908      -2.54084425       0.14161245
H        4.38299386      -4.44393011       0.47805069
H        8.25761582      -3.60650080       3.00233831
H       10.03527924      -5.30871563       3.13905417
H       10.13049746      -7.14917132       1.47656803
H        8.45036491      -7.28659316      -0.31953915
C       -0.00445707       0.01189536      -1.78238275
H       -0.66409135       0.67374010      -2.43557963
H        0.65740317      -0.63156657      -2.45157240
C       -0.90989263      -0.90692880      -0.91072765
C        0.90977584       0.90977584      -0.90977584
C       -0.00465871       1.77757030       0.00794375
H       -0.66225468       2.44313916      -0.64384735
H        0.64322798       2.43503045       0.67728295
C       -1.78241447       0.00034974      -0.00472694
H       -2.45427497      -0.65498947       0.64260836
H       -2.43311707       0.67328779      -0.65473579
C       -0.91132561       0.90220522       0.91563759
C       -0.01476271      -0.02253852       1.78660255
H       -0.67934791      -0.69751639       2.42135241
H        0.63392994       0.61504881       2.47327442
C        0.01484550      -1.77751727      -0.01636693
H        0.67870853      -2.42144646      -0.68295456
H       -0.62264859      -2.45592969       0.64226336
C        1.78714474       0.01002794       0.00389507
H        2.44202412       0.67113390       0.66197326
H        2.45385902      -0.65136977      -0.64189061
C        0.91606151      -0.90478549       0.90901405
