190
Properties=species:S:1:pos:R:3 pbc="F F F"
C       -0.16195978       0.33676393      -4.86581621
N       -0.23287871       1.78739522      -4.77201206
C       -0.11262422       2.36981461      -3.43249895
C        1.32155423       2.44190791      -2.95154822
C        2.22924678       3.23533375      -3.68303750
C        3.55995894       3.37462419      -3.28664258
C        4.01231602       2.73021792      -2.14179453
C        3.13380710       1.94338477      -1.39885984
C        1.79783064       1.79783064      -1.79783064
C       -0.46692168       2.63436963      -5.85382805
O       -0.57347620       3.85396880      -5.69840400
C       -0.64575025       2.00699808      -7.23487929
S        0.02202165       3.07723881      -8.54902193
C        1.71475824       3.02114391      -8.16620042
N        2.26026421       2.22790235      -7.26939634
N        3.61591417       2.46441945      -7.30526228
C        3.82269135       3.38116348      -8.23000817
O        2.64696509       3.78010025      -8.82089122
C        5.05561871       3.99044460      -8.73513520
C        4.99143119       4.84157631      -9.86142180
C        6.13634027       5.42916139     -10.40740630
C        7.37958554       5.18062388      -9.84108933
C        7.47375980       4.35168797      -8.72522024
C        6.32480958       3.76204994      -8.17187827
H        0.49583211       0.03471793      -5.68471411
H       -1.17137928      -0.04641044      -5.04609336
H        0.22837663      -0.09551455      -3.94151603
H       -0.76067998       1.78721135      -2.77230716
H       -0.52265153       3.38573450      -3.41345099
H        1.89798016       3.75648023      -4.58055262
H        4.23785941       3.98548221      -3.87678274
H        5.04759409       2.83896509      -1.82902136
H        3.50192773       1.44559707      -0.50493170
H       -1.72024231       1.88295820      -7.40104599
H       -0.17928556       1.02850963      -7.33302237
H        4.03590192       5.05671141     -10.33839487
H        6.05327891       6.07758578     -11.27688216
H        8.27396620       5.63187246     -10.26339263
H        8.45406806       4.16855220      -8.28996748
C        6.55430522       2.94276914      -7.01010776
C        6.74650782       2.25662146      -6.03712496
Br       7.05728317       1.14717871      -4.46389406
C       -4.72193196      -1.01619472       0.69750633
N       -5.01614507      -0.63458319      -0.67580031
C       -3.87270069      -0.29115324      -1.52583541
C       -3.14859934      -1.51141963      -2.05499139
C       -3.86052710      -2.39721625      -2.88987467
C       -3.25424315      -3.52761640      -3.43936616
C       -1.91657562      -3.79371634      -3.17403651
C       -1.18964692      -2.93130183      -2.35510296
C       -1.79783064      -1.79783064      -1.79783064
C       -6.30192366      -0.51843287      -1.20091947
O       -6.48624497      -0.13373228      -2.35891935
C       -7.48497955      -0.82600830      -0.28513927
S       -8.86663536      -1.57744747      -1.20419957
C       -8.15098691      -3.09298310      -1.65813255
N       -6.99151129      -3.54009369      -1.22595792
N       -6.81393680      -4.78449047      -1.78716863
C       -7.88050894      -5.03152168      -2.52183238
O       -8.77657623      -3.98935850      -2.48202182
C       -8.26628210      -6.20439959      -3.31051682
C       -9.56115994      -6.25943247      -3.87383690
C       -9.99771216      -7.36376386      -4.61143194
C       -9.14959181      -8.44592037      -4.80578657
C       -7.86420446      -8.41746072      -4.26900282
C       -7.42097870      -7.30784680      -3.52991229
H       -5.28816165      -1.90726454       0.98016205
H       -4.99735820      -0.18372016       1.35277472
H       -3.65929052      -1.23717275       0.82208515
H       -3.22980056       0.37310237      -0.94214034
H       -4.19508752       0.30520424      -2.38665068
H       -4.90858020      -2.20751260      -3.11892022
H       -3.83206524      -4.19664118      -4.07141795
H       -1.44084406      -4.67196366      -3.60277282
H       -0.14354115      -3.15210691      -2.15680845
H       -7.82596685       0.12354583       0.13865913
H       -7.23563670      -1.48837110       0.54176137
H      -10.25860498      -5.43348447      -3.73891875
H      -11.00185687      -7.37627317      -5.02961680
H       -9.48466236      -9.30908771      -5.37548122
H       -7.20940316      -9.27104753      -4.43213705
C       -6.06750081      -7.39382076      -3.04586055
C       -4.93396308      -7.46582395      -2.64046722
Br      -3.10112844      -7.58224702      -1.98498049
C       -1.50656792      -0.99895445       4.53300688
N       -1.03858557       0.30289453       4.98504846
C       -0.51926641       1.21144288       3.95898006
C       -1.61746403       1.91144377       3.18610257
C       -2.49141929       2.76151752       3.89468122
C       -3.50969550       3.46331543       3.24821478
C       -3.67182606       3.33859547       1.87390695
C       -2.81831510       2.50779452       1.14994209
C       -1.79783064       1.79783064       1.79783064
C       -0.99829262       0.70369129       6.31929209
O       -0.53533352       1.80100708       6.64255600
C       -1.49131767      -0.27678096       7.38159041
S       -2.28711683       0.58735387       8.77381170
C       -3.68541238       1.23947419       7.97721599
N       -4.05787063       0.95092205       6.74877022
N       -5.22811030       1.63849358       6.51899202
C       -5.50989808       2.29958191       7.62438302
O       -4.56276703       2.08696707       8.59822246
C       -6.64224042       3.15825900       7.98069908
C       -6.76936393       3.61209930       9.31296608
C       -7.84277318       4.40940123       9.72073356
C       -8.82089670       4.77497062       8.80543143
C       -8.71876079       4.34911954       7.48278768
C       -7.63961760       3.55041022       7.06870998
H       -2.46723135      -1.24463105       4.99266385
H       -0.76206532      -1.74984362       4.81608195
H       -1.63754664      -1.01162851       3.44845999
H        0.14985334       0.62528965       3.32340222
H        0.11555097       1.98251795       4.40956698
H       -2.38122572       2.88197465       4.97181264
H       -4.17338189       4.10341721       3.82332527
H       -4.46236982       3.88604813       1.36716259
H       -2.95692840       2.42057027       0.07495782
H       -0.61708379      -0.81450927       7.76118736
H       -2.19552377      -1.01428409       7.00100675
H       -6.02633879       3.34213360      10.06253580
H       -7.91301376       4.74003033      10.75470276
H       -9.65990325       5.39191048       9.11741756
H       -9.49077117       4.64602080       6.77579577
C       -7.64018630       3.19330360       5.67369222
C       -7.64066259       2.89422681       4.50536485
Br      -7.64143271       2.41064494       2.61627830
C       -0.94358367      -4.57641720       1.40778681
N        0.37428906      -4.99681807       0.95542143
C        1.27324395      -3.94562153       0.47082386
C        1.93963430      -3.18039455       1.59498152
C        2.78673374      -3.88944901       2.47143527
C        3.45861543      -3.24911978       3.51349049
C        3.30628327      -1.88038342       3.69766179
C        2.47781093      -1.15597494       2.84226583
C        1.79783064      -1.79783064       1.79783064
C        0.79972947      -6.32281011       0.89873643
O        1.91072335      -6.61818766       0.44998559
C       -0.17000737      -7.41102477       1.35510971
S        0.70485985      -8.80184518       2.14157737
C        1.31764200      -8.01916673       3.56529383
N        1.00043479      -6.80294005       3.95418807
N        1.66291650      -6.58215800       5.14052140
C        2.33873422      -7.68056781       5.41456098
O        2.16052215      -8.64078400       4.44665041
C        3.18350605      -8.04197888       6.55571358
C        3.65897217      -9.36807415       6.66738299
C        4.44435997      -9.78094462       7.74760338
C        4.77598430      -8.87709678       8.74821768
C        4.32822940      -7.56057650       8.66186211
C        3.54142242      -7.14131936       7.57599601
H       -1.19790863      -5.05760062       2.35557216
H       -1.67594233      -4.85927711       0.64496885
H       -0.97812923      -3.49480297       1.55770437
H        0.68766902      -3.30856349      -0.19739398
H        2.06344104      -4.37096090      -0.15786798
H        2.92852610      -4.96211590       2.34437102
H        4.09712762      -3.82467629       4.17832046
H        3.83042192      -1.37835907       4.50679956
H        2.36877621      -0.08537835       2.99830194
H       -0.68523509      -7.78426107       0.46473590
H       -0.92660999      -7.05632286       2.05253357
H        3.41576863     -10.10878833       5.90645124
H        4.79228308     -10.80999400       7.80546976
H        5.38349229      -9.19318446       9.59255454
H        4.59861424      -6.86247209       9.45150141
C        3.15926596      -5.75308249       7.59483366
C        2.83920993      -4.59043412       7.61061020
Br       2.32170639      -2.71053004       7.63611952
C       -0.00445707       0.01189536      -1.78238275
H       -0.66409135       0.67374010      -2.43557963
H        0.65740317      -0.63156657      -2.45157240
C       -0.90989263      -0.90692880      -0.91072765
C        0.90977584       0.90977584      -0.90977584
C       -0.00465871       1.77757030       0.00794375
H       -0.66225468       2.44313916      -0.64384735
H        0.64322798       2.43503045       0.67728295
C       -1.78241447       0.00034974      -0.00472694
H       -2.45427497      -0.65498947       0.64260836
H       -2.43311707       0.67328779      -0.65473579
C       -0.91132561       0.90220522       0.91563759
C       -0.01476271      -0.02253852       1.78660255
H       -0.67934791      -0.69751639       2.42135241
H        0.63392994       0.61504881       2.47327442
C        0.01484550      -1.77751727      -0.01636693
H        0.67870853      -2.42144646      -0.68295456
H       -0.62264859      -2.45592969       0.64226336
C        1.78714474       0.01002794       0.00389507
H        2.44202412       0.67113390       0.66197326
H        2.45385902      -0.65136977      -0.64189061
C        0.91606151      -0.90478549       0.90901405
