194
Properties=species:S:1:pos:R:3 pbc="F F F"
O        4.47656187       4.86364800      -7.24430373
C        5.66754040       4.62657466      -7.07179957
N        6.33428836       5.02003251      -5.94287115
C        5.77368241       5.97708059      -5.00175859
C        4.83812712       5.41864876      -3.91508623
O        4.62490372       6.07902409      -2.89889832
N        4.21903932       4.22663101      -4.24548978
C        3.40217304       3.42413368      -3.41727405
C        3.31897191       3.63625830      -2.03479341
C        2.51702999       2.82983674      -1.22341010
C        1.79153081       1.79153081      -1.79153081
C        1.86890976       1.55003438      -3.16058678
C        2.67296879       2.35748388      -3.98847146
C        2.71341338       2.05164098      -5.46138840
C        6.48459865       3.83785298      -8.07505831
C        7.15193165       2.60683067      -7.46171692
C        8.53234738       2.94296718      -6.92426727
O        8.81093890       4.07675770      -6.53314515
C        9.56152070       1.87197754      -6.83471592
C       10.90782003       2.25419842      -6.75152701
C       11.91068671       1.28709438      -6.66031895
C       11.56598393      -0.06242728      -6.64428920
Br      12.92018301      -1.37426630      -6.51394279
C       10.22868387      -0.45290732      -6.71803455
C        9.22287806       0.51437983      -6.81254895
H        7.35110604       4.91972031      -5.94007697
H        5.23727314       6.75615307      -5.55322964
H        6.62877314       6.42833832      -4.48476132
H        4.26773481       3.98657614      -5.22858303
H        3.88333666       4.42650209      -1.54678074
H        2.47116342       3.02587009      -0.15595542
H        1.29582166       0.73134307      -3.59119268
H        2.39141577       2.92232574      -6.04192146
H        2.04342967       1.22363901      -5.71951700
H        3.72586631       1.76079871      -5.76133329
H        7.20320933       4.50874417      -8.55884890
H        5.78557878       3.50135293      -8.85164270
H        7.25888029       1.85639646      -8.25193746
H        6.55003253       2.18564576      -6.64908658
H       11.18322831       3.30766438      -6.75863450
H       12.95068391       1.59754770      -6.59887888
H        9.95965008      -1.50649386      -6.69619193
H        8.18859471       0.18398368      -6.84885917
O       -3.91024447      -5.80513186      -6.86913727
C       -4.94199929      -5.22799546      -7.19591988
N       -5.96832127      -5.01284581      -6.31602493
C       -6.04189528      -5.68336298      -5.02726332
C       -5.27830358      -5.03369846      -3.85986008
O       -5.57853313      -5.32233900      -2.70195399
N       -4.21500570      -4.23523922      -4.24091519
C       -3.40611257      -3.42728549      -3.41018270
C       -3.75770449      -3.14973636      -2.08258277
C       -2.95657558      -2.34041913      -1.27328212
C       -1.79153081      -1.79153081      -1.79153081
C       -1.42770873      -2.03937082      -3.11245136
C       -2.22691336      -2.85491911      -3.93709167
C       -1.78066670      -3.09101664      -5.35475941
C       -5.14304948      -4.66580437      -8.58865610
C       -5.46355577      -3.17107873      -8.58584474
C       -6.96155354      -2.93243814      -8.50559014
O       -7.71321692      -3.74352471      -7.96410011
C       -7.53127157      -1.67528161      -9.06166099
C       -8.89943811      -1.64766342      -9.36644393
C       -9.48269241      -0.49010224      -9.88530540
C       -8.69860323       0.64253199     -10.09177462
Br      -9.48591354       2.21350228     -10.78744824
C       -7.33801103       0.62797855      -9.78377862
C       -6.75133608      -0.53166534      -9.26680541
H       -6.84863560      -4.66315820      -6.69910952
H       -5.69488563      -6.71615174      -5.13561849
H       -7.10267605      -5.68908198      -4.75011475
H       -3.92396916      -4.35497778      -5.20394704
H       -4.66951920      -3.54469178      -1.64240852
H       -3.25600784      -2.15046594      -0.24651515
H       -0.51255795      -1.60069921      -3.50510024
H       -1.65168477      -4.16205684      -5.54192135
H       -0.81884710      -2.60750811      -5.56023046
H       -2.51263744      -2.67817733      -6.05718354
H       -5.90443833      -5.25830634      -9.10805772
H       -4.19740053      -4.81563487      -9.12553901
H       -5.09321340      -2.74836852      -9.52563228
H       -4.97921251      -2.65719092      -7.74836144
H       -9.51858217      -2.52830026      -9.20264476
H      -10.54424510      -0.48344075     -10.11942464
H       -6.72830610       1.51556237      -9.93660443
H       -5.69424966      -0.51002654      -9.01716136
O       -5.83969774       6.84668927       3.89812659
C       -5.25448432       7.19228431       4.91914600
N       -5.01706902       6.32709217       5.95303083
C       -5.67147014       5.03157299       6.04947846
C       -5.01703727       3.86289975       5.29192510
O       -5.28851754       2.70532814       5.60898044
N       -4.23554139       4.24067627       4.21494244
C       -3.42733050       3.40993584       3.40631442
C       -3.13010389       2.08988451       3.77003522
C       -2.32069160       1.28068024       2.96890498
C       -1.79153081       1.79153081       1.79153081
C       -2.05911602       3.10510533       1.41530957
C       -2.87496144       3.92955203       2.21441066
C       -3.13290330       5.33902697       1.75451249
C       -4.70642356       8.59373597       5.09735041
C       -3.20814113       8.61208510       5.40025301
C       -2.95116275       8.55224857       6.89617051
O       -3.74702112       8.01024436       7.66357626
C       -1.69409575       9.12957293       7.44454549
C       -1.65415296       9.45073836       8.80865414
C       -0.49607227       9.98985919       9.37216859
C        0.62485564      10.20024732       8.57245418
Br       2.19658153      10.92336688       9.33307416
C        0.59810173       9.87611040       7.21580242
C       -0.56212341       9.33881309       6.64887035
H       -4.66169759       6.72455319       6.82465254
H       -6.70942947       5.12381489       5.71341149
H       -5.66158655       4.76688094       7.11340529
H       -4.36998375       5.19875794       3.91415230
H       -3.50921754       1.65590791       4.69149403
H       -2.11519642       0.25978779       3.27800472
H       -1.63577161       3.49203234       0.49055346
H       -4.20750010       5.51218601       1.63597685
H       -2.66306796       5.53877409       0.78474363
H       -2.71987300       6.05477248       2.47335283
H       -5.29610053       9.11513536       5.85956650
H       -4.87355304       9.11767239       4.14734897
H       -2.80085795       9.55230242       5.01405382
H       -2.69010100       7.77499384       4.91967003
H       -2.52553896       9.28400451       9.43998372
H       -0.47981839      10.23651805      10.43077406
H        1.47667273      10.03206430       6.59395657
H       -0.54984619       9.07701333       5.59457805
O        6.12563333      -6.63605711       3.82282316
C        5.48627875      -7.13865646       4.74097942
N        5.06490463      -6.41107303       5.82121435
C        5.56990123      -5.07692162       6.10569873
C        4.87194454      -3.90261295       5.39730462
O        4.99137387      -2.76372878       5.84772348
N        4.23800119      -4.23849585       4.21466307
C        3.42749949      -3.40793259       3.40814868
C        2.96261104      -2.16623423       3.86117835
C        2.15244477      -1.35788440       3.05994766
C        1.79153081      -1.79153081       1.79153081
C        2.22756841      -3.02829845       1.32366406
C        3.04587117      -3.85092945       2.12212351
C        3.49011222      -5.17490934       1.56142120
C        5.07182047      -8.59615007       4.72953940
C        3.56172467      -8.78593562       4.87281895
C        3.16100117      -8.90544472       6.33313594
O        3.82117039      -8.37358075       7.22609060
C        1.92458292      -9.65153843       6.69209283
C        1.79051539     -10.11437081       8.00865926
C        0.64674713     -10.81493162       8.39642129
C       -0.36658127     -11.04551901       7.46890812
Br      -1.91937778     -11.98739432       7.99184296
C       -0.24657918     -10.58175028       6.15864000
C        0.89982114      -9.88244093       5.76754477
H        4.67249696      -6.92806018       6.61034618
H        6.63871729      -5.03631834       5.87162022
H        5.43312079      -4.92576799       7.18298401
H        4.49837210      -5.14351434       3.84100755
H        3.20685758      -1.79629456       4.85346736
H        1.81444229      -0.39818168       3.44036496
H        1.93496681      -3.35544918       0.32794142
H        4.58320689      -5.23349709       1.53895898
H        3.13633212      -5.31640880       0.53384476
H        3.08783016      -5.99666775       2.16350041
H        5.63828092      -9.13606004       5.49646144
H        5.38045116      -9.00107073       3.75705252
H        3.29181730      -9.71515643       4.36024047
H        3.00718299      -7.95583787       4.42174401
H        2.57702326      -9.93296336       8.73954057
H        0.55703765     -11.17017469       9.41989816
H       -1.04220459     -10.75413671       5.43741603
H        0.95930888      -9.51532256       4.74680612
C       -0.00445707       0.01189536      -1.78238275
H       -0.66409135       0.67374010      -2.43557963
H        0.65740317      -0.63156657      -2.45157240
C       -0.90989263      -0.90692880      -0.91072765
C        0.90977584       0.90977584      -0.90977584
C       -0.00465871       1.77757030       0.00794375
H       -0.66225468       2.44313916      -0.64384735
H        0.64322798       2.43503045       0.67728295
C       -1.78241447       0.00034974      -0.00472694
H       -2.45427497      -0.65498947       0.64260836
H       -2.43311707       0.67328779      -0.65473579
C       -0.91132561       0.90220522       0.91563759
C       -0.01476271      -0.02253852       1.78660255
H       -0.67934791      -0.69751639       2.42135241
H        0.63392994       0.61504881       2.47327442
C        0.01484550      -1.77751727      -0.01636693
H        0.67870853      -2.42144646      -0.68295456
H       -0.62264859      -2.45592969       0.64226336
C        1.78714474       0.01002794       0.00389507
H        2.44202412       0.67113390       0.66197326
H        2.45385902      -0.65136977      -0.64189061
C        0.91606151      -0.90478549       0.90901405
