173
Properties=species:S:1:pos:R:3 pbc="F F F"
C        0.00000000       0.00000000       0.00000000
O        3.56665784       3.95374398      -6.33439970
C        4.75763637       3.71667063      -6.16189555
N        5.42438434       4.11012848      -5.03296712
C        4.86377838       5.06717656      -4.09185457
C        3.92822310       4.50874474      -3.00518221
O        3.71499969       5.16912007      -1.98899429
N        3.30913530       3.31672698      -3.33558576
C        2.49226902       2.51422965      -2.50737002
C        2.40906789       2.72635427      -1.12488939
C        1.60712596       1.91993271      -0.31350608
C        0.88162678       0.88162678      -0.88162678
C        0.95900574       0.64013035      -2.25068276
C        1.76306476       1.44757985      -3.07856744
C        1.80350936       1.14173695      -4.55148438
C        5.57469463       2.92794896      -7.16515429
C        6.24202762       1.69692665      -6.55181290
C        7.62244335       2.03306315      -6.01436325
O        7.90103487       3.16685367      -5.62324112
C        8.65161668       0.96207352      -5.92481190
C        9.99791601       1.34429439      -5.84162299
C       11.00078268       0.37719036      -5.75041493
C       10.65607991      -0.97233130      -5.73438517
Br      12.01027898      -2.28417033      -5.60403877
C        9.31877985      -1.36281134      -5.80813052
C        8.31297403      -0.39552419      -5.90264493
H        6.44120201       4.00981629      -5.03017295
H        4.32736912       5.84624905      -4.64332561
H        5.71886911       5.51843430      -3.57485730
H        3.35783079       3.07667212      -4.31867901
H        2.97343264       3.51659807      -0.63687671
H        1.56125940       2.11596606       0.75394860
H        0.38591763      -0.17856095      -2.68128865
H        1.48151175       2.01242171      -5.13201743
H        1.13352565       0.31373499      -4.80961297
H        2.81596229       0.85089468      -4.85142927
H        6.29330531       3.59884014      -7.64894487
H        4.87567476       2.59144890      -7.94173867
H        6.34897626       0.94649243      -7.34203343
H        5.64012850       1.27574174      -5.73918255
H       10.27332429       2.39776036      -5.84873047
H       12.04077988       0.68764368      -5.68897486
H        9.04974605      -2.41639788      -5.78628791
H        7.27869069      -0.72592035      -5.93895515
O       -4.80581214      -3.03455771      -6.01443168
C       -5.76539886      -3.47824509      -5.39255860
N       -5.63498555      -4.47214050      -4.46035390
C       -4.42279591      -5.26618168      -4.33383192
C       -3.29757974      -4.68457229      -3.45999802
O       -2.42283505      -5.43000173      -3.02027727
N       -3.31978509      -3.30722557      -3.33443738
C       -2.49294943      -2.50555811      -2.51536116
C       -1.68190630      -3.06130551      -1.51709974
C       -0.87670514      -2.25860147      -0.70525814
C       -0.88162678      -0.88162678      -0.88162678
C       -1.69033256      -0.30317471      -1.85631158
C       -2.50504078      -1.10270080      -2.68147047
C       -3.35427788      -0.42182021      -3.72063260
C       -7.16571933      -2.92828874      -5.57378980
C       -7.78635712      -2.43929570      -4.26511434
C       -8.54585839      -3.55532830      -3.56868306
O       -8.23393243      -4.73674189      -3.72045535
C       -9.66960456      -3.21393143      -2.65496610
C      -10.60999735      -4.21166316      -2.36217287
C      -11.67964553      -3.94261735      -1.50612509
C      -11.80399539      -2.67751023      -0.93662816
Br     -13.24666346      -2.31157273       0.22808877
C      -10.86884162      -1.68034841      -1.21490900
C       -9.79836158      -1.94708891      -2.07464427
H       -6.49385078      -4.88997036      -4.09737010
H       -4.01706486      -5.46965938      -5.33021955
H       -4.72851065      -6.21216120      -3.87148886
H       -3.91531290      -2.83411579      -4.00375322
H       -1.66082318      -4.13232827      -1.33375596
H       -0.25558674      -2.72303042       0.05534030
H       -1.68485269       0.77774826      -1.98154090
H       -3.10965267      -0.79631217      -4.71998605
H       -3.18799418       0.66139380      -3.73027323
H       -4.41646089      -0.58933494      -3.51249041
H       -7.78375589      -3.67990611      -6.07742832
H       -7.07951212      -2.07296581      -6.25638440
H       -8.49114335      -1.63748723      -4.50887154
H       -7.02572167      -2.04937690      -3.57995422
H      -10.51543584      -5.20399247      -2.80038681
H      -12.40281580      -4.72488077      -1.28970184
H      -10.96141186      -0.69556181      -0.76266241
H       -9.07363432      -1.15905774      -2.25903342
O       -6.33814579       3.92507684       3.59157889
C       -5.98138157       5.09806365       3.55675733
N       -4.84675682       5.53511298       4.18561014
C       -4.13671072       4.72391243       5.16218636
C       -3.10854599       3.71774774       4.61585631
O       -2.23661479       3.27419077       5.36230849
N       -3.33619539       3.31206175       3.31319090
C       -2.51031660       2.49168081       2.51187128
C       -1.19640353       2.17908844       2.88481958
C       -0.38454170       1.37632874       2.07969431
C       -0.88162678       0.88162678       0.88162678
C       -2.17878991       1.19029427       0.48073466
C       -3.00671544       1.99743122       1.28506540
C       -4.40098602       2.29343382       0.80231085
C       -6.74432532       6.14836546       2.77510709
C       -5.87579534       6.87018765       1.74478417
C       -5.22134220       8.10169973       2.34682782
O       -4.96919725       8.17195992       3.54997250
C       -4.84373143       9.23510052       1.45967015
C       -4.64595409      10.49421556       2.04366374
C       -4.28540498      11.58825848       1.25472451
C       -4.11491070      11.42078498      -0.11756190
Br      -3.62012954      12.89780273      -1.18778484
C       -4.30105549      10.17016213      -0.70711859
C       -4.66525091       9.07370065       0.08114320
H       -4.69891495       6.54478608       4.23749021
H       -4.86115581       4.17929167       5.77649630
H       -3.58661197       5.42848105       5.79706769
H       -4.25871969       3.53551406       2.95894817
H       -0.76196398       2.55936099       3.80558245
H        0.62757116       1.14885582       2.40199220
H       -2.55385276       0.79664915      -0.46185658
H       -5.13996040       1.95163774       1.53435276
H       -4.61793959       1.78052595      -0.14159193
H       -4.52252209       3.36787472       0.62788943
H       -7.22560467       6.83847403       3.47701162
H       -7.54592652       5.62042293       2.24251289
H       -6.52645557       7.18774629       0.92330027
H       -5.09386595       6.21406207       1.34712478
H       -4.77293338      10.63035603       3.11652572
H       -4.13763241      12.55937599       1.72039003
H       -4.15879022      10.03811651      -1.77727065
H       -4.78470546       8.10703805      -0.40001802
O        3.08237205      -6.07691126       4.69551822
C        3.46735399      -5.47586922       5.69297934
N        4.42959872      -4.50405258       5.63382864
C        5.26169115      -4.30341960       4.45769876
C        4.68878470      -3.40956290       3.34380244
O        5.44834952      -2.91059381       2.51417072
N        3.30779309      -3.33487212       3.31878283
C        2.50638284      -2.51487416       2.49261169
C        3.05323597      -1.46738516       1.73969042
C        2.25027907      -0.65546220       0.93482347
C        0.88162678      -0.88162678       0.88162678
C        0.31129886      -1.90630545       1.63221453
C        1.11123821      -2.73199976       2.44597409
C        0.43957600      -3.82629879       3.23085590
C        2.87425816      -5.72936741       7.06417231
C        2.31430103      -4.46349185       7.71297429
C        3.37515553      -3.75613566       8.53857855
O        4.57195439      -3.85321241       8.26596287
C        2.95921604      -2.89823667       9.68104939
C        3.91054468      -2.60504698      10.66824173
C        3.57098261      -1.80008705      11.75731831
C        2.28170315      -1.28183819      11.85459245
Br       1.82028148      -0.18614989      13.32371605
C        1.33020882      -1.56071141      10.87317880
C        1.66763736      -2.36940602       9.78305139
H        4.80213008      -4.15869976       6.52036141
H        5.51701022      -5.27584228       4.02409128
H        6.17794641      -3.81894271       4.81527159
H        2.83891051      -4.04277586       3.87149556
H        4.11667608      -1.24472435       1.76550699
H        2.70799006       0.14424685       0.35953365
H       -0.76324938      -2.07029153       1.58160319
H        0.85995526      -4.80154395       2.96445169
H       -0.63578064      -3.86889588       3.02375836
H        0.56058898      -3.65227667       4.30542058
H        3.62139622      -6.22832563       7.69136847
H        2.04886292      -6.43875966       6.92123975
H        1.49722562      -4.76242084       8.37785567
H        1.92671262      -3.76480772       6.96353245
H        4.92140767      -3.00318615      10.59522129
H        4.31786943      -1.58280402      12.51672497
H        0.32642320      -1.14821083      10.94500205
H        0.91384363      -2.55484891       9.02303295
