133
Properties=species:S:1:pos:R:3 pbc="F F F"
C        0.00000000       0.00000000       0.00000000
C        4.61794032      -0.20035281      -7.49674097
C        3.64871046      -0.05074986      -6.33048486
C        4.29488958      -0.38972217      -4.97018788
H        5.19999766       0.22498970      -4.87528117
N        3.42441704      -0.01564041      -3.86960181
C        3.27567106       1.29307742      -3.46460467
O        3.89719924       2.21647159      -3.98012683
C        2.31979701       1.48299150      -2.39448237
C        1.87398002       2.63740399      -1.77835185
C        0.93605419       2.23951146      -0.79565781
C        0.86726725       0.86726725      -0.86726725
O        1.69707549       0.39668564      -1.83671807
C        4.68183609      -1.85456783      -4.84103315
C        6.01077551      -2.19855329      -4.54328368
C        6.39496551      -3.53700819      -4.43060424
C        5.45017974      -4.54407390      -4.60772218
C        4.12455001      -4.22530423      -4.89129875
C        3.74142508      -2.88606865      -5.00447963
H        4.13523490       0.11119517      -8.42855002
H        4.94419503      -1.23727013      -7.61979671
H        5.50388385       0.42607345      -7.35073857
H        2.76150966      -0.66874376      -6.51251184
H        3.29324792       0.98708444      -6.32128020
H        2.86002637      -0.71835326      -3.40739656
H        2.19587272       3.64158469      -2.02226471
H        0.38288459       2.87712897      -0.12001425
H        6.76124354      -1.42280740      -4.40146501
H        7.43024740      -3.78025533      -4.20648473
H        3.38381593      -5.00891224      -5.02778855
H        2.70138643      -2.65644073      -5.22615952
C        5.84655528      -5.92400125      -4.49687564
C        6.17851979      -7.07969040      -4.40404166
Br       6.71527833      -8.94834201      -4.25393697
C       -7.74197634      -4.19854209       0.02618994
C       -6.51739149      -3.30187682      -0.10917714
C       -5.21485265      -3.99893751       0.33843486
H       -5.13817070      -4.94055494      -0.22154289
N       -4.04941567      -3.20975994      -0.01920283
C       -3.56843455      -3.15551981      -1.30939878
O       -4.06837449      -3.79940868      -2.22601449
C       -2.43832134      -2.26935039      -1.48959915
C       -1.73843792      -1.92145033      -2.62984761
C       -0.72744230      -1.01589967      -2.22788149
C       -0.86726725      -0.86726725      -0.86726725
O       -1.90477430      -1.61744020      -0.40826470
C       -5.18471048      -4.31012386       1.82653293
C       -4.97981596      -5.63171852       2.25602858
C       -4.95929298      -5.94631453       3.61704595
C       -5.13639694      -4.93899815       4.56156708
C       -5.32867176      -3.62004804       4.15817527
C       -5.34971281      -3.30653097       2.79640771
H       -8.62781568      -3.68551095      -0.36165347
H       -7.93740014      -4.45972246       1.07040100
H       -7.61266664      -5.12439259      -0.54363664
H       -6.68210619      -2.37334475       0.45017320
H       -6.43381279      -3.00563099      -1.16216878
H       -3.59419320      -2.63230043       0.67742396
H       -1.94665691      -2.28537414      -3.62769108
H        0.01053725      -0.53536910      -2.85519598
H       -4.83928547      -6.43057093       1.52995524
H       -4.80618522      -6.97683657       3.92654499
H       -5.46484404      -2.83074455       4.89289635
H       -5.50084075      -2.27063753       2.50037307
C       -5.12056236      -5.26334216       5.96447485
C       -5.10730089      -5.53498027       7.13941012
Br      -5.08585823      -5.97419612       9.03918106
C       -8.23581618       3.05832233       0.62018997
C       -6.87897089       2.36759373       0.68188083
C       -5.77421747       3.15534494      -0.05420712
H       -5.77107949       4.17467663       0.35451241
N       -4.46206658       2.59661091       0.21970095
C       -3.80877926       2.81058627       1.41398761
O       -4.27500633       3.51663221       2.30215913
C       -2.53995385       2.12439344       1.53292359
C       -1.64674347       2.05712618       2.58586621
C       -0.57003124       1.24469563       2.15649659
C       -0.86726725       0.86726725       0.86726725
O       -2.06183072       1.38923549       0.47941298
C       -5.99440100       3.23077542      -1.55687501
C       -6.05894535       4.48418880      -2.18762826
C       -6.27191526       4.58156258      -3.56491628
C       -6.41493579       3.42415717      -4.32526495
C       -6.34198344       2.17094618      -3.72238510
C       -6.12958812       2.07467557      -2.34442763
H       -8.96977517       2.49752461       1.20768031
H       -8.60892092       3.12390233      -0.40610165
H       -8.17738855       4.07087669       1.03243062
H       -6.97020354       1.34927625       0.28579794
H       -6.60861509       2.25397993       1.73901754
H       -4.02029208       1.98397984      -0.45520226
H       -1.77273396       2.54137235       3.54561582
H        0.31196872       0.97246194       2.71953460
H       -5.94854918       5.39848037      -1.60712840
H       -6.32533023       5.56199973      -4.03085315
H       -6.45077903       1.26523097      -4.31331776
H       -6.07521278       1.08714139      -1.89124895
C       -6.63967590       3.52387338      -5.74411962
C       -6.82789574       3.60738571      -6.93241040
Br      -7.13223131       3.74241807      -8.85377609
C        6.14632297       0.51852640       6.28653192
C        4.92849683       0.38107393       5.38102255
C        5.30202954       0.31153657       3.88486233
H        6.03464638      -0.49814912       3.76747303
N        4.15255784      -0.05102720       3.07479341
C        3.68006629      -1.34384259       3.00944426
O        4.22260602      -2.27360240       3.59758925
C        2.48934189      -1.50534146       2.20258753
C        1.71310399      -2.62203087       1.95460100
C        0.66653561      -2.20908883       1.09559902
C        0.86726725      -0.86726725       0.86726725
O        1.96586434      -0.42711394       1.53750092
C        5.91053000       1.60258241       3.36035381
C        7.17796636       1.57779257       2.75533210
C        7.76447923       2.75150993       2.27559226
C        7.08402655       3.96062888       2.39043034
C        5.82116338       4.00621772       2.97559887
C        5.23564038       2.83160459       3.45580027
H        5.83762400       0.49925600       7.33661210
H        6.67551911       1.45975250       6.11095500
H        6.84694045      -0.30737297       6.12638245
H        4.23326022       1.20576096       5.57777848
H        4.39685257      -0.53366776       5.67109223
H        3.63644980       0.66438575       2.57700561
H        1.89290616      -3.61110637       2.35570960
H       -0.13155074      -2.81785745       0.69372111
H        7.72262789       0.64030425       2.65757751
H        8.74910292       2.70996364       1.81733752
H        5.28605043       4.94806285       3.06470466
H        4.24839966       2.88681190       3.90951745
C        7.69018244       5.17162242       1.90086965
C        8.19783800       6.18582952       1.49086258
Br       9.01867409       7.82571661       0.82791581
