186
Properties=species:S:1:pos:R:3 pbc="F F F"
C        1.79182072       1.79182072      -1.79182072
C        1.48539131       3.14543695      -1.93945204
C        2.30440327       3.95800044      -2.72501293
C        3.41933454       3.41155482      -3.35856356
F        4.20158759       4.22570113      -4.08254402
C        3.71158628       2.05318498      -3.23535807
C        2.90291855       1.24053680      -2.43054968
C        4.93327231       1.46912721      -3.82233094
O        5.61752403       0.75865189      -3.08766367
N        5.27792040       1.73794991      -5.14952489
C        4.28251516       2.00871994      -6.20233158
C        4.88623428       2.75948489      -7.40208191
N        6.10626081       2.08894553      -7.86969248
C        7.11725544       1.96299958      -6.81535640
C        6.55177046       1.17126512      -5.62859362
C        6.16588082       1.17994089      -8.92572615
O        7.04511292       0.32313048      -9.01213723
C        5.13684392       1.18089479      -9.98477141
C        4.62890887      -0.05679797     -10.40601159
C        3.69336940      -0.10375063     -11.43933090
C        3.26439648       1.06884180     -12.06162211
C        3.79085183       2.29847288     -11.65827073
C        4.73540631       2.34645912     -10.63446773
F        5.24104487       3.53970955     -10.29336161
H        0.62376477       3.57752714      -1.43537512
H        2.09034481       5.01720634      -2.83398253
H        3.15700917       0.19118488      -2.29361957
H        3.42571030       2.56246861      -5.81576948
H        3.90639208       1.03202971      -6.52849937
H        4.13106791       2.83698495      -8.18564681
H        5.17021686       3.77665162      -7.10605936
H        8.02672065       1.48431484      -7.19237891
H        7.38584953       2.97842798      -6.49815844
H        6.35126183       0.13246309      -5.91910875
H        7.28501907       1.15722646      -4.81498820
H        4.97842562      -0.97319811      -9.93432540
H        2.53554018       1.03386337     -12.86897234
H        3.47941175       3.21770627     -12.14595137
C        3.17275607      -1.37414893     -11.87366937
C        2.73674241      -2.43810751     -12.23742784
Br       2.03174518      -4.15843855     -12.82559452
C       -1.79182072      -1.79182072      -1.79182072
C       -2.18554660      -1.33444016      -3.05029354
C       -2.97081451      -2.14915965      -3.86744247
C       -3.35863722      -3.41101278      -3.41980292
F       -4.08874745      -4.18005042      -4.24103486
C       -2.98998049      -3.85890557      -2.15124328
C       -2.18447848      -3.05136163      -1.33816491
C       -3.31220560      -5.22311251      -1.68941236
O       -2.39248183      -5.87445808      -1.19689968
N       -4.60716738      -5.72912994      -1.82909788
C       -5.81207119      -4.88062540      -1.80087009
C       -7.02199141      -5.55655071      -2.46925897
N       -7.21425694      -6.91226086      -1.93838104
C       -6.02807998      -7.75652488      -2.11100655
C       -4.81948068      -7.12548426      -1.40666426
C       -8.10030536      -7.25416865      -0.91707385
O       -7.93600850      -8.24230456      -0.20206757
C       -9.27424857      -6.40959458      -0.61866697
C       -9.56368828      -6.14181446       0.72738026
C      -10.69262826      -5.39119440       1.05487298
C      -11.53951485      -4.91100139       0.05565585
C      -11.26388436      -5.20074119      -1.28296989
C      -10.14322132      -5.96151535      -1.61159649
F       -9.92570187      -6.24529801      -2.90311614
H       -1.87318040      -0.35574134      -3.40774529
H       -3.26906810      -1.81543478      -4.85703080
H       -1.85504049      -3.41866501      -0.36810811
H       -5.63285116      -3.90855481      -2.26254242
H       -6.03107680      -4.69253596      -0.74330841
H       -7.90156640      -4.92751763      -2.32461564
H       -6.85099133      -5.65368367      -3.54825284
H       -6.20251126      -8.76869830      -1.73220484
H       -5.83812727      -7.83556225      -3.18874642
H       -4.97065154      -7.11210927      -0.32007285
H       -3.92318081      -7.71998958      -1.61406334
H       -8.91427252      -6.53331684       1.50803645
H      -12.42155893      -4.32635489       0.30953793
H      -11.92433022      -4.84860451      -2.07013466
C      -10.99154338      -5.11736933       2.43663620
C      -11.24188479      -4.88804083       3.59386289
Br     -11.64666569      -4.51723604       5.46500057
C       -1.79182072       1.79182072       1.79182072
C       -2.73717702       1.20130457       2.63179871
C       -3.52667709       2.00426790       3.45647165
C       -3.36785008       3.38892269       3.43268016
F       -4.12203694       4.12945310       4.25834270
C       -2.44344670       3.98314901       2.57353361
C       -1.63562653       3.17784084       1.76053766
C       -2.19395297       5.43764068       2.59313682
O       -1.01947788       5.79901921       2.64534249
N       -3.26187299       6.33833882       2.56518339
C       -4.54513286       6.04747234       1.90096149
C       -5.69209589       6.92688500       2.42882019
N       -5.30346864       8.34307943       2.41835076
C       -4.09243570       8.59901874       3.20415697
C       -2.92119510       7.76945527       2.66097884
C       -5.61388021       9.25122744       1.40644021
O       -4.93667047      10.25543426       1.18827590
C       -6.76667765       9.02369825       0.51213422
C       -6.58652739       9.25165175      -0.86005665
C       -7.66353787       9.09821949      -1.73280769
C       -8.91925610       8.72708947      -1.25148518
C       -9.10304673       8.52579911       0.11874961
C       -8.03112089       8.69106531       0.99414695
F       -8.25028349       8.51888707       2.30494546
H       -2.85396874       0.12027830       2.66242000
H       -4.25311202       1.55865151       4.12977015
H       -0.87999741       3.63631781       1.12549840
H       -4.81765270       4.99497503       1.99132065
H       -4.39023297       6.24319021       0.83349798
H       -6.58461673       6.73884898       1.83023396
H       -5.92176549       6.66288949       3.46827287
H       -3.83631825       9.66335689       3.20373926
H       -4.30960398       8.31214533       4.24068664
H       -2.64888629       8.10230921       1.65163817
H       -2.04665320       7.90392464       3.30665588
H       -5.61200099       9.56072147      -1.23316956
H       -9.76099743       8.60829662      -1.93091817
H      -10.07939508       8.25410235       0.50957196
C       -7.47992009       9.33383991      -3.14148349
C       -7.32614019       9.53117202      -4.32124948
Br      -7.07749111       9.85024135      -6.22883130
C        1.79182072      -1.79182072       1.79182072
C        1.25432339      -2.93958907       2.37636784
C        2.06533043      -3.75979789       3.16228832
C        3.40394170      -3.42518875       3.36032247
F        4.16293290      -4.24985408       4.09704576
C        3.93607102      -2.26371519       2.80034312
C        3.12934750      -1.45049160       1.99416592
C        5.36954740      -1.93399061       2.92119246
O        5.95647141      -1.62058928       1.88677889
N        6.00662235      -1.99546607       4.16330678
C        5.31311652      -1.74155400       5.43889616
C        6.05252243      -2.35400781       6.64127084
N        7.46959575      -1.96873589       6.62656719
C        8.14596161      -2.36278182       5.38686798
C        7.45480797      -1.71995384       4.17686739
C        8.01841896      -0.90733914       7.34578977
O        9.04996286      -0.33449525       6.99592252
C        7.35350823      -0.39032800       8.55867390
C        7.26428102       1.00073542       8.71457689
C        6.68992090       1.53071767       9.86974644
C        6.21029801       0.68919692      10.87375931
C        6.32361086      -0.69566668      10.72831791
C        6.90885114      -1.22709227       9.58038974
F        7.02804584      -2.55864074       9.48742944
H        0.21365584      -3.21045983       2.21255136
H        1.66695067      -4.66656995       3.60801307
H        3.55517661      -0.57022150       1.51641551
H        4.28369031      -2.10215322       5.41810486
H        5.26404798      -0.65212348       5.55074970
H        5.54977241      -2.04503271       7.55889455
H        6.01515602      -3.44888815       6.58888368
H        9.20573308      -2.08922998       5.40845133
H        8.08863189      -3.45628801       5.31751605
H        7.57335687      -0.62948431       4.19999249
H        7.91491284      -2.08860327       3.25371762
H        7.65656984       1.65755303       7.94053610
H        5.76313259       1.10109638      11.77633968
H        5.97080871      -1.36237580      11.50988488
C        6.59958401       2.95875544      10.03144794
C        6.52392686       4.15473707      10.16687295
Br       6.40159565       6.08853822      10.38584373
C       -0.00445707       0.01189536      -1.78238275
H       -0.66409135       0.67374010      -2.43557963
H        0.65740317      -0.63156657      -2.45157240
C       -0.90989263      -0.90692880      -0.91072765
C        0.90977584       0.90977584      -0.90977584
C       -0.00465871       1.77757030       0.00794375
H       -0.66225468       2.44313916      -0.64384735
H        0.64322798       2.43503045       0.67728295
C       -1.78241447       0.00034974      -0.00472694
H       -2.45427497      -0.65498947       0.64260836
H       -2.43311707       0.67328779      -0.65473579
C       -0.91132561       0.90220522       0.91563759
C       -0.01476271      -0.02253852       1.78660255
H       -0.67934791      -0.69751639       2.42135241
H        0.63392994       0.61504881       2.47327442
C        0.01484550      -1.77751727      -0.01636693
H        0.67870853      -2.42144646      -0.68295456
H       -0.62264859      -2.45592969       0.64226336
C        1.78714474       0.01002794       0.00389507
H        2.44202412       0.67113390       0.66197326
H        2.45385902      -0.65136977      -0.64189061
C        0.91606151      -0.90478549       0.90901405
