165
Properties=species:S:1:pos:R:3 pbc="F F F"
C        0.00000000       0.00000000       0.00000000
C        2.63242862       1.53598316      -7.09603352
C        1.65479072       1.39044223      -5.94100947
N        1.73028090       2.52744884      -5.01650293
C        2.70321633       2.42657289      -3.92477077
C        2.03503781       1.97415608      -2.66717565
C        1.81002922       2.83410941      -1.53006564
C        1.15827269       2.21756710      -0.53445196
C        0.84977788       0.84977788      -0.84977788
S        1.42642693       0.35805907      -2.40660247
C        0.96028907       3.68631669      -5.10011759
O        1.10569492       4.61134215      -4.29445036
C       -0.05132167       3.82697773      -6.21390535
N       -1.35324647       3.38422619      -5.78096922
N       -2.32626170       4.24709689      -5.44561984
N       -3.39236080       3.48837154      -5.23276094
C       -3.02001416       2.18986702      -5.49427343
N       -1.73886573       2.09628185      -5.89215652
C       -3.92403177       1.05562976      -5.35277268
C       -3.47883134      -0.25259257      -5.60349272
C       -4.33930874      -1.34332498      -5.44504859
C       -5.65325564      -1.13121022      -5.03520029
C       -6.11584263       0.15962318      -4.78824379
C       -5.25319242       1.24942534      -4.94736052
H        2.52788731       0.69382350      -7.78717473
H        3.66587770       1.55516188      -6.73615647
H        2.45633225       2.46116775      -7.65340361
H        1.86513916       0.46612104      -5.39363504
H        0.64455462       1.29135348      -6.33744265
H        3.17489868       3.40559744      -3.77711887
H        3.50392111       1.73516705      -4.21129530
H        2.12086862       3.87005275      -1.51187470
H        0.87702153       2.68559258       0.39741509
H        0.22732756       3.28266260      -7.11823439
H       -0.12100618       4.88458602      -6.49305492
H       -2.45219106      -0.43291473      -5.91757443
H       -3.97191552      -2.34784163      -5.63798471
H       -7.14025684       0.33043012      -4.46754675
H       -5.62856256       2.25135893      -4.74549780
C       -6.53792006      -2.25403702      -4.86133585
C       -7.27882651      -3.19440446      -4.71572438
Br      -8.47680958      -4.71489908      -4.48028295
C       -3.74786695      -6.70333881      -0.81323954
C       -3.38781120      -5.33089239      -0.26753883
N       -3.89827660      -4.25325101      -1.12270506
C       -3.02813830      -3.81038064      -2.21604105
C       -2.27224671      -2.58366527      -1.82045756
C       -2.54198278      -1.27237833      -2.35984315
C       -1.76295463      -0.32157116      -1.82576596
C       -0.84977788      -0.84977788      -0.84977788
S       -0.97666007      -2.56494477      -0.64948363
C       -5.13675280      -3.62977614      -0.98019441
O       -5.50281508      -2.74642589      -1.76224646
C       -6.06177686      -4.06176356       0.13397900
N       -5.87740907      -3.23538682       1.30084695
N       -6.73632751      -2.25509757       1.62497004
N       -6.31740562      -1.81439723       2.80303117
C       -5.23663896      -2.58748431       3.15999699
N       -4.96094210      -3.53346127       2.24483073
C       -4.48714814      -2.39158176       4.39435924
C       -3.37177159      -3.19170943       4.69141221
C       -2.63820504      -2.98858581       5.86437597
C       -3.01763467      -1.98257724       6.74947748
C       -4.12526914      -1.18281773       6.47606254
C       -4.85771946      -1.38777188       5.30189790
H       -3.38705348      -7.48470170      -0.13713036
H       -3.29441823      -6.86693032      -1.79584750
H       -4.83074904      -6.81748029      -0.92267428
H       -2.30009050      -5.24050861      -0.18429613
H       -3.78399410      -5.23218990       0.74283325
H       -3.64322367      -3.61224311      -3.10214821
H       -2.34180584      -4.62042282      -2.48815480
H       -3.31142705      -1.09273364      -3.09863538
H       -1.81392609       0.72725624      -2.07852917
H       -5.93497456      -5.10883349       0.41558351
H       -7.09747706      -3.95175783      -0.20739987
H       -3.06025719      -3.97689407       4.00468261
H       -1.77440712      -3.61496789       6.07114745
H       -4.42512110      -0.39590728       7.16330834
H       -5.71763509      -0.75102167       5.10036258
C       -2.25724188      -1.76496246       7.95282556
C       -1.62041291      -1.58271008       8.96062958
Br      -0.59071434      -1.28802339      10.59016344
C       -0.70429292       3.97850430       6.58164808
C       -0.19773944       3.58515871       5.20334426
N       -1.11333875       4.01899264       4.14190129
C       -2.18725979       3.09054027       3.77675993
C       -1.80919665       2.30202168       2.56515121
C       -2.40885858       2.49829004       1.26705565
C       -1.88099946       1.70300136       0.32629093
C       -0.84977788       0.84977788       0.84977788
S       -0.58901683       1.05262595       2.54944569
C       -1.04442173       5.23614849       3.46615312
O       -1.87379610       5.53636392       2.60132741
C        0.04769586       6.21976779       3.81748949
N        1.18841128       6.04748496       2.95287526
N        1.44011758       6.87839254       1.92818007
N        2.61617757       6.48774205       1.45720720
C        3.04541755       5.45319966       2.25634417
N        2.17897502       5.18056055       3.24798711
C        4.30028602       4.74442150       2.04023519
C        4.67212478       3.67410199       2.87009161
C        5.86477609       2.97857849       2.64861247
C        6.69475444       3.35124052       1.59424834
C        6.34684063       4.41475192       0.76411305
C        5.15310512       5.10918788       0.98751069
H        0.01517669       3.67539135       7.34867088
H       -1.66101069       3.49456331       6.80162205
H       -0.85240843       5.06008024       6.65841493
H       -0.07467062       2.49869461       5.15153000
H        0.79147685       4.01557802       5.04924958
H       -3.10416790       3.66275697       3.59069013
H       -2.40046167       2.42715374       4.62276805
H       -3.18413021       3.23102190       1.08764395
H       -2.17567057       1.70232112      -0.71279267
H        0.37412382       6.14577055       4.85657782
H       -0.33872849       7.23638240       3.68152387
H        4.02902592       3.36805017       3.69344439
H        6.12975902       2.14904970       3.29893688
H        6.99085425       4.70911012      -0.06053583
H        4.89310730       5.93462742       0.32677405
C        7.91825810       2.62951981       1.35811707
C        8.94294243       2.02507870       1.16035713
Br      10.59977031       1.04774856       0.84059604
C        2.91481101      -7.02861259       1.32102171
C        2.65954030      -5.70111789       0.62558423
N        3.43080342      -4.61049028       1.23293897
C        2.80228495      -3.90111739       2.35115766
C        2.16284991      -2.63665954       1.87686009
C        2.68107346      -1.32209722       2.17103359
C        1.96174332      -0.34261726       1.60593118
C        0.84977788      -0.84977788       0.84977788
S        0.71849623      -2.57562629       0.89696595
C        4.70436763      -4.20619045       0.83616527
O        5.29756411      -3.29360981       1.42031350
C        5.38492581      -4.91596006      -0.31132446
N        5.13588129      -4.23164077      -1.55557312
N        6.05691598      -3.44407262      -2.13453357
N        5.52574482      -3.10349562      -3.30046876
C        4.31130370      -3.74386571      -3.39104313
N        4.05576345      -4.50864488      -2.31483569
C        3.41560108      -3.60037970      -4.53161011
C        2.17278746      -4.25412589      -4.55484454
C        1.30294355      -4.09791808      -5.63844677
C        1.67254973      -3.28610872      -6.70792402
C        2.90414601      -2.63465312      -6.70677479
C        3.77283810      -2.79232731      -5.62157197
H        2.35621258      -7.82816337       0.82450959
H        2.59809078      -6.99109869       2.36800658
H        3.97729139      -7.29026308       1.30334913
H        1.59317160      -5.45856936       0.67315428
H        2.90742823      -5.79716442      -0.43124190
H        3.56524791      -3.68392004       3.10844705
H        2.06479723      -4.55489704       2.83068920
H        3.57049248      -1.16576601       2.76653758
H        2.18772454       0.71035537       1.68782984
H        5.08051243      -5.95949971      -0.41178759
H        6.46578532      -4.92040851      -0.12955907
H        1.86863280      -4.88594498      -3.72210913
H        0.34309923      -4.60774222      -5.63261390
H        3.19702359      -1.99944269      -7.53874624
H        4.72944648      -2.27244462      -5.63359693
C        0.77372038      -3.11562627      -7.81996787
C        0.02095080      -2.97284721      -8.75130460
Br      -1.19621395      -2.74198555     -10.25719732
