161
Properties=species:S:1:pos:R:3 pbc="F F F"
C        0.00000000       0.00000000       0.00000000
C        0.88231176       0.88231176      -0.88231176
C        2.26235320       0.69337066      -0.88379034
C        3.06589807       1.49892835      -1.68789958
C        2.48594776       2.49213387      -2.48191535
C        1.09627375       2.69497034      -2.48332127
C        0.29735734       1.87179272      -1.67471766
C        0.52278649       3.75126225      -3.30811222
N        1.11327712       4.62986338      -4.09400219
N        0.10794534       5.40954390      -4.63004635
C       -1.02570175       4.94743937      -4.14169684
S       -2.59899221       5.58491073      -4.51013603
C       -2.31901855       6.15413284      -6.21241605
C       -1.98331317       5.01620244      -7.17481608
O       -1.79116614       3.86180909      -6.79216360
N       -1.92125297       5.34270203      -8.53054658
C       -2.34574238       6.62559827      -9.07789974
C       -1.64068610       4.27071005      -9.49321011
C       -2.86646027       3.68267290     -10.16515786
C       -4.06588894       3.53057569      -9.44177727
C       -5.19967521       2.95604620     -10.01995334
C       -5.15394487       2.49739092     -11.33041965
C       -3.97029250       2.60274861     -12.05704675
C       -2.83239790       3.18163906     -11.47928327
Br      -1.26255970       3.21828301     -12.55267897
O       -0.83692939       3.90695023      -3.27366672
H        2.71894873      -0.07510612      -0.26534334
H        4.14397207       1.35700524      -1.69711885
H        3.12950991       3.11366833      -3.10404539
H       -0.78278781       2.00123893      -1.65846339
H       -1.51579804       6.89802051      -6.22645600
H       -3.24904728       6.62983219      -6.53729420
H       -3.43293146       6.61148896      -9.20047507
H       -1.86876482       6.79834648     -10.04766498
H       -2.07451990       7.44591726      -8.41134727
H       -1.09500595       3.45525492      -9.00321953
H       -0.95595773       4.71297198     -10.22322947
H       -4.12826086       3.84537209      -8.40267651
H       -6.11202576       2.85518671      -9.43715604
H       -6.03213379       2.04170455     -11.77994139
H       -3.93951094       2.21753994     -13.07353969
C       -0.88231176      -0.88231176      -0.88231176
C       -0.91192078      -0.66909894      -2.25849448
C       -1.71735975      -1.47350929      -3.06185696
C       -2.49254318      -2.48296389      -2.48448992
C       -2.47464704      -2.70245471      -1.09746361
C       -1.65328765      -1.89028313      -0.30029694
C       -3.30844461      -3.75097545      -0.52274090
N       -4.15466553      -4.57752136      -1.10495580
N       -4.68932860      -5.35839352      -0.09981346
C       -4.12626418      -4.96075510       1.02358482
S       -4.45588635      -5.63171886       2.59155067
C       -4.82799832      -7.34864701       2.12911498
C       -3.63738814      -8.06839377       1.49807656
O       -2.58889661      -7.48850488       1.21459494
N       -3.78457575      -9.43765780       1.27023793
C       -4.90056805     -10.22991636       1.77272879
C       -2.64988253     -10.17532364       0.70197211
C       -1.79347576     -10.90599332       1.71809859
C       -1.55511933     -10.33540376       2.98405907
C       -0.73883238     -10.96405580       3.92656384
C       -0.12115780     -12.16905416       3.61634626
C       -0.31088183     -12.73766678       2.35904574
C       -1.13202048     -12.10954551       1.41304156
Br      -1.26803085     -12.95499163      -0.28537980
O       -3.25388019      -3.92402260       0.83421523
H       -0.31390836       0.11700938      -2.71228696
H       -1.74496201      -1.31572483      -4.13740932
H       -3.11742490      -3.10212412      -3.12767461
H       -1.61409695      -2.03951953       0.77670197
H       -5.67909551      -7.37029838       1.44071542
H       -5.10523190      -7.86545542       3.05260821
H       -4.70115254     -10.49362972       2.81574969
H       -5.01365509     -11.14183038       1.17823883
H       -5.83505935      -9.66881020       1.72112493
H       -2.00251019      -9.49566187       0.13470357
H       -3.09123914     -10.86665181      -0.02235276
H       -1.99298672      -9.37583092       3.24902989
H       -0.57641316     -10.50048239       4.89657856
H        0.52178368     -12.65597547       4.34467965
H        0.19777515     -13.66839992       2.11905608
C       -0.88231176       0.88231176       0.88231176
C       -0.53731991       2.21639971       1.08579459
C       -1.34194922       3.01967120       1.89110558
C       -2.48387583       2.48351595       2.49260521
C       -2.83745977       1.13823373       2.29887187
C       -2.02276853       0.34181637       1.47928282
C       -4.02426256       0.60317903       2.95471937
N       -4.87739996       1.18617115       3.77357158
N       -5.80931437       0.22566888       4.11255233
C       -5.46578893      -0.87305929       3.47070481
S       -6.32246480      -2.38179888       3.55538862
C       -8.01527596      -1.77095314       3.80320752
C       -8.53162179      -0.94810008       2.62418364
O       -7.81342690      -0.62750226       1.67688191
N       -9.87911269      -0.58538056       2.65826349
C      -10.83666967      -1.10567517       3.62676112
C      -10.42565960       0.17181014       1.52576432
C      -11.15446901      -0.66618189       0.49308337
C      -10.69025240      -1.95752280       0.17373443
C      -11.31529321      -2.73806221      -0.80090666
C      -12.40714907      -2.23574069      -1.49754268
C      -12.86487235      -0.94832447      -1.22704501
C      -12.24054589      -0.16475058      -0.24727088
Br     -12.92196514       1.59495965      -0.00852250
O       -4.32484628      -0.71386826       2.73270955
H        0.35173828       2.63748669       0.62343753
H       -1.08156953       4.06286235       2.05366427
H       -3.10127205       3.12585948       3.12009210
H       -2.27355300      -0.70259735       1.30595886
H       -8.06248874      -1.17288795       4.71907769
H       -8.64933171      -2.65434943       3.92309683
H      -11.17944946      -2.08776832       3.28735143
H      -11.69153160      -0.42783023       3.71354527
H      -10.38053939      -1.21033871       4.61254395
H       -9.62503399       0.72185726       1.01657725
H      -11.08591725       0.92073343       1.97359304
H       -9.81656918      -2.36987564       0.67309421
H      -10.93576801      -3.73247363      -1.02297739
H      -12.88991776      -2.83757540      -2.26283022
H      -13.70466936      -0.55680588      -1.79629479
C        0.88231176      -0.88231176       0.88231176
C        0.74395589      -2.26728567       0.82827265
C        1.54825486      -3.07070781       1.63376334
C        2.48254800      -2.48501306       2.49243592
C        2.62595533      -1.08954423       2.55906581
C        1.81508957      -0.29182832       1.73694982
C        3.59628865      -0.50767531       3.47819700
N        4.40835222      -1.09167799       4.33711248
N        5.10371621      -0.07812466       4.96569471
C        4.67474287       1.05229187       4.44098345
S        5.24022084       2.63260226       4.88843597
C        6.95824693       2.24061092       5.32989433
C        7.77280718       1.71452191       4.14942008
O        7.26492058       1.45933524       3.05722120
N        9.14299025       1.55069413       4.35969951
C        9.84705058       2.03162472       5.54232977
C        9.96904276       1.08505257       3.23924387
C       10.68634197       2.18354588       2.47857440
C       10.06011894       3.42920565       2.27555074
C       10.67765518       4.44675587       1.54542503
C       11.92849978       4.23433547       0.97970139
C       12.55481272       2.99988575       1.13457590
C       11.93774522       1.97860671       1.86938592
Br      12.86718988       0.32171323       1.96292563
O        3.69695583       0.85740554       3.50413727
H        0.01631360      -2.72786289       0.16500945
H        1.44871633      -4.15291464       1.59646519
H        3.10273268      -3.12844359       3.11604735
H        1.90662981       0.79201297       1.76229766
H        6.97332917       1.50845483       6.14380414
H        7.40823967       3.17314626       5.68298570
H       10.06297090       3.09638405       5.41244572
H       10.78317338       1.48021196       5.67428522
H        9.24163388       1.89942300       6.44053375
H        9.35636545       0.51959994       2.52670299
H       10.67523374       0.37458897       3.67959895
H        9.06586810       3.61922027       2.67313991
H       10.17047478       5.39872599       1.40856820
H       12.40746179       5.02138861       0.40343897
H       13.52262564       2.83717364       0.66611668
