169
Properties=species:S:1:pos:R:3 pbc="F F F"
C        0.00000000       0.00000000       0.00000000
C        0.88231176       0.88231176      -0.88231176
C        2.26235320       0.69337066      -0.88379034
C        3.06589807       1.49892835      -1.68789958
C        2.48594776       2.49213387      -2.48191535
C        1.09627375       2.69497034      -2.48332127
C        0.29735734       1.87179272      -1.67471766
C        0.52278649       3.75126225      -3.30811222
N        1.11327712       4.62986338      -4.09400219
N        0.10794534       5.40954390      -4.63004635
C       -1.02570175       4.94743937      -4.14169684
S       -2.59899221       5.58491073      -4.51013603
C       -2.31901855       6.15413284      -6.21241605
C       -1.98331317       5.01620244      -7.17481608
O       -1.79116614       3.86180909      -6.79216360
N       -1.92125297       5.34270203      -8.53054658
C       -2.34574238       6.62559827      -9.07789974
C       -1.64068610       4.27071005      -9.49321011
C       -2.86646027       3.68267290     -10.16515786
C       -4.06588894       3.53057569      -9.44177727
C       -5.19967521       2.95604620     -10.01995334
C       -5.15394487       2.49739092     -11.33041965
C       -3.97029250       2.60274861     -12.05704675
C       -2.83239790       3.18163906     -11.47928327
O       -0.83692939       3.90695023      -3.27366672
H        2.71894873      -0.07510612      -0.26534334
H        4.14397207       1.35700524      -1.69711885
H        3.12950991       3.11366833      -3.10404539
H       -0.78278781       2.00123893      -1.65846339
H       -1.51579804       6.89802051      -6.22645600
H       -3.24904728       6.62983219      -6.53729420
H       -3.43293146       6.61148896      -9.20047507
H       -1.86876482       6.79834648     -10.04766498
H       -2.07451990       7.44591726      -8.41134727
H       -1.09500595       3.45525492      -9.00321953
H       -0.95595773       4.71297198     -10.22322947
H       -4.12826086       3.84537209      -8.40267651
H       -6.11202576       2.85518671      -9.43715604
H       -6.03213379       2.04170455     -11.77994139
H       -3.93951094       2.21753994     -13.07353969
C       -1.64392763       3.20938093     -12.29191407
C       -0.64858379       3.23261475     -12.97249237
Br       0.96080302       3.27018186     -14.07292992
C       -0.88231176      -0.88231176      -0.88231176
C       -0.30667470      -1.61548367      -1.91735583
C       -1.11214020      -2.41887433      -2.72171148
C       -2.48903323      -2.48076096      -2.49020279
C       -3.08038025      -1.74099196      -1.45319316
C       -2.25690454      -0.94157691      -0.64538627
C       -4.52188739      -1.81189726      -1.24837632
N       -5.44328699      -2.47398166      -1.91987404
N       -6.64971729      -2.18252194      -1.31529636
C       -6.38011780      -1.37089953      -0.31241713
S       -7.56210673      -0.70848444       0.77453662
C       -8.77330244      -2.06235906       0.78813116
C       -8.21088087      -3.36078236       1.36395788
O       -7.02179794      -3.49490027       1.65389167
N       -9.12104580      -4.39920479       1.56825496
C      -10.56664512      -4.24688700       1.45577649
C       -8.62949808      -5.65074561       2.15700962
C       -8.85199402      -5.78084071       3.65146424
C       -8.74103204      -4.65022355       4.48479156
C       -8.90063067      -4.74449539       5.86880172
C       -9.15202987      -5.97801320       6.45617736
C       -9.23120498      -7.11786703       5.65956914
C       -9.07411565      -7.02460603       4.27019725
O       -5.04802927      -1.07188101      -0.22377728
H        0.76307801      -1.56810129      -2.10416266
H       -0.67103647      -2.99647547      -3.53058422
H       -3.10412360      -3.11354337      -3.12955666
H       -2.68500832      -0.36102964       0.16912345
H       -9.14249504      -2.23878528      -0.22739816
H       -9.60512723      -1.72806114       1.41510926
H      -10.94740859      -3.82024574       2.38862176
H      -11.03574230      -5.21960059       1.27809625
H      -10.82846830      -3.58385116       0.62957484
H       -7.55687074      -5.76622509       1.95962734
H       -9.13820367      -6.44662175       1.60458170
H       -8.50972716      -3.67432700       4.06426641
H       -8.81244551      -3.85334662       6.48547515
H       -9.26774813      -6.05567664       7.53391263
H       -9.40358164      -8.08138388       6.13339684
C       -9.13040388      -8.26082898       3.53386548
C       -9.17754527      -9.29616569       2.91718763
Br      -9.25376891     -10.97021760       1.92007170
C       -0.88231176       0.88231176       0.88231176
C       -1.72313529       0.29289044       1.82348847
C       -2.52777219       1.09819637       2.62675745
C       -2.49122088       2.48769389       2.48108222
C       -1.65156160       3.09183136       1.53117240
C       -0.84044153       2.26985443       0.73357176
C       -1.64938937       4.54269572       1.39007587
N       -2.35809054       5.45812627       2.02092588
N       -1.97519472       6.67626452       1.49607634
C       -1.05397147       6.42069888       0.58876411
S       -0.24070182       7.62200399      -0.36665126
C       -0.23178006       9.00769907       0.80805121
C        0.57767370       8.71518079       2.07019826
O        1.05050466       7.60381467       2.30949654
N        0.77752172       9.78390015       2.94561719
C        0.43960976      11.16672796       2.63063742
C        1.58355692       9.55581491       4.15097607
C        3.03471010       9.98078192       4.03529867
C        3.72655318       9.81363708       2.81938013
C        5.07386385      10.15782325       2.69236493
C        5.76919341      10.65620186       3.78685725
C        5.11913433      10.79809278       5.01054441
C        3.76632624      10.45584142       5.13900925
O       -0.81254417       5.08123608       0.44990731
H       -1.75825745      -0.78742657       1.93835506
H       -3.18554244       0.64682737       3.36572634
H       -3.12790337       3.10228487       3.11703539
H       -0.17563483       2.70874722      -0.00746753
H       -1.25960772       9.26787391       1.08119685
H        0.22171367       9.85478630       0.28500648
H        1.24673472      11.59621050       2.02955679
H        0.31984652      11.74504124       3.55205193
H       -0.49241363      11.22431167       2.06601933
H        1.55893761       8.49482178       4.42758433
H        1.06802807      10.10041760       4.94785419
H        3.22447664       9.39308502       1.95117937
H        5.57986545      10.02032190       1.73986054
H        6.82011931      10.91643044       3.69320101
H        5.68046754      11.16571899       5.86631723
C        3.19084186      10.59673397       6.45147526
C        2.70887369      10.71473148       7.55066554
Br       1.92957192      10.90552348       9.32796325
C        0.88231176      -0.88231176       0.88231176
C        0.44811211      -2.15856264       1.23283945
C        1.25291486      -2.96178803       2.03802311
C        2.48469135      -2.48279817       2.49250747
C        2.92922032      -1.19540561       2.14993943
C        2.11257996      -0.39925569       1.33203206
C        4.21033862      -0.71706227       2.65476008
N        5.08268588      -1.30490632       3.44955049
N        6.11741347      -0.40750750       3.62261462
C        5.80936313       0.66094566       2.91501699
S        6.79177190       2.08826262       2.79254526
C        8.44380410       1.35005633       2.95378258
C        8.78223558       0.38957180       1.81504157
O        7.95768063       0.05784099       0.96296691
N       10.09277062      -0.08892074       1.77030427
C       11.17328570       0.42121402       2.60568394
C       10.47078464      -0.98311327       0.66933616
C       11.17033949      -0.30223304      -0.49120203
C       10.78742986       0.99487275      -0.88609307
C       11.38447581       1.63286194      -1.97528954
C       12.36398853       0.97851565      -2.71160718
C       12.73637976      -0.31814221      -2.36501910
C       12.14025443      -0.95878381      -1.27051381
O        4.59738832       0.54474403       2.29104327
H       -0.51066620      -2.53462478       0.88522736
H        0.92301893      -3.96031411       2.31476312
H        3.10093693      -3.12412213       3.12216457
H        2.43208432       0.60045906       1.04528925
H        8.52374919       0.82780859       3.91273788
H        9.15681624       2.17965706       2.94091992
H       11.56400213       1.33708556       2.15211600
H       11.97361529      -0.32134868       2.68228267
H       10.81794829       0.64751563       3.61231196
H        9.58491767      -1.49899594       0.27955488
H       11.10460151      -1.74890547       1.12673674
H        9.99927232       1.52400194      -0.35548264
H       11.06987377       2.63566585      -2.25389093
H       12.82392413       1.46922401      -3.56518797
H       13.48633279      -0.82931097      -2.96407508
C       12.55858928      -2.31254848      -1.01377039
C       12.90894472      -3.44632638      -0.79874777
Br      13.47543984      -5.27954936      -0.45107440
