182
Properties=species:S:1:pos:R:3 pbc="F F F"
C        1.79221578       1.79221578      -1.79221578
C        3.17225722       1.60327469      -1.79369437
C        3.97580210       2.40883238      -2.59780360
C        3.39585178       3.40203790      -3.39181938
C        2.00617778       3.60487437      -3.39322529
C        1.20726136       2.78169674      -2.58462169
C        1.43269052       4.66116628      -4.21801625
N        2.02318114       5.53976741      -5.00390622
N        1.01784936       6.31944792      -5.53995038
C       -0.11579773       5.85734339      -5.05160087
S       -1.68908819       6.49481475      -5.42004005
C       -1.40911452       7.06403686      -7.12232008
C       -1.07340915       5.92610647      -8.08472010
O       -0.88126211       4.77171311      -7.70206762
N       -1.01134895       6.25260605      -9.44045060
C       -1.43583836       7.53550229      -9.98780376
C       -0.73078208       5.18061408     -10.40311414
C       -1.95655625       4.59257693     -11.07506188
C       -3.15598491       4.44047971     -10.35168130
C       -4.28977118       3.86595023     -10.92985737
C       -4.24404085       3.40729494     -12.24032368
C       -3.06038848       3.51265264     -12.96695078
C       -1.92249387       4.09154309     -12.38918729
Br      -0.35265568       4.12818704     -13.46258300
O        0.07297464       4.81685426      -4.18357074
H        3.62885276       0.83479790      -1.17524736
H        5.05387609       2.26690926      -2.60702288
H        4.03941393       4.02357236      -4.01394941
H        0.12711621       2.91114296      -2.56836742
H       -0.60589401       7.80792454      -7.13636003
H       -2.33914326       7.53973621      -7.44719822
H       -2.52302744       7.52139298     -10.11037910
H       -0.95886079       7.70825050     -10.95756901
H       -1.16461587       8.35582128      -9.32125129
H       -0.18510193       4.36515895      -9.91312355
H       -0.04605370       5.62287600     -11.13313349
H       -3.21835683       4.75527612      -9.31258053
H       -5.20212173       3.76509074     -10.34706006
H       -5.12222977       2.95160857     -12.68984541
H       -3.02960692       3.12744396     -13.98344372
C       -1.79221578      -1.79221578      -1.79221578
C       -1.30371231      -2.25291449      -3.01259948
C       -2.10929102      -3.05652388      -3.81662317
C       -3.40036272      -3.39071075      -3.39863558
C       -3.90479334      -2.92661491      -2.17286919
C       -3.08049204      -2.12424998      -1.36883777
C       -5.26208780      -3.27689021      -1.77289503
N       -6.17827655      -3.98273547      -2.40584274
N       -7.29062057      -3.99833223      -1.58829485
C       -6.97340234      -3.30933432      -0.51040987
S       -8.03275148      -3.03076681       0.83775168
C       -9.00961624      -4.56177645       0.79415027
C       -8.17001019      -5.81302511       1.04561788
O       -6.94204521      -5.77938432       1.12891090
N       -8.86718428      -7.01266780       1.19814438
C      -10.31667986      -7.09946387       1.32867604
C       -8.10125358      -8.23252224       1.48082968
C       -8.03844676      -8.61865507       2.94601926
C       -7.95231364      -7.62166708       3.93780462
C       -7.85279238      -7.94565858       5.29241454
C       -7.81308565      -9.27712220       5.68663008
C       -7.86051386     -10.28299171       4.72429063
C       -7.96326239      -9.95962933       3.36465522
Br      -7.96381296     -11.41869864       2.14439725
O       -5.70523311      -2.79936725      -0.56879928
H       -0.30174208      -1.99292969      -3.34422625
H       -1.73536494      -3.42259176      -4.76985153
H       -4.01706464      -4.01944205      -4.04042901
H       -3.44121522      -1.75388288      -0.41152849
H       -9.51981913      -4.64782943      -0.17074199
H       -9.75967702      -4.47374993       1.58563577
H      -10.58797676      -6.88817295       2.36740508
H      -10.66065122      -8.10191719       1.05560969
H      -10.81337450      -6.37749858       0.67841638
H       -7.07427102      -8.12903472       1.11012518
H       -8.57515633      -9.01435483       0.87955537
H       -7.94448119      -6.56916251       3.66414388
H       -7.79118764      -7.15377901       6.03493759
H       -7.72662395      -9.53206629       6.73946602
H       -7.80352231     -11.32105608       5.04329762
C       -1.79221578       1.79221578       1.79221578
C       -3.13966887       1.47751042       1.95204699
C       -3.94336699       2.28310652       2.75596457
C       -3.39685647       3.40156724       3.39128534
C       -2.04101426       3.73122136       3.23204182
C       -1.24051766       2.90728624       2.42577589
C       -1.50449717       4.91471026       3.89266560
N       -2.10631599       5.81051051       4.65002826
N       -1.14055816       6.73051540       5.00617409
C       -0.01574546       6.32788029       4.44952077
S        1.51155974       7.14248496       4.59484140
C        1.33368715       7.85414363       6.25678594
C        1.20641542       6.79424540       7.34958744
O        1.09853396       5.59401786       7.09703473
N        1.23708415       7.25028643       8.66850542
C        1.57721601       8.61610690       9.04857680
C        1.15771807       6.26082741       9.74983679
C        2.49401583       5.86043537      10.34466303
C        3.63058448       5.74694535       9.51981523
C        4.86571466       5.34184636      10.02990471
C        4.98852068       5.01711222      11.37498623
C        3.87264968       5.08610000      12.20576461
C        2.63304336       5.49518026      11.69609960
Br       1.17377687       5.49576948      12.91612174
O       -0.17683210       5.19123323       3.70533431
H       -3.57069437       0.61097372       1.45722993
H       -4.99581639       2.04370676       2.88828507
H       -4.04015339       4.02112393       4.01565838
H       -0.18539422       3.13380162       2.28743075
H        0.46348804       8.51803408       6.28384451
H        2.23634942       8.44454109       6.43959951
H        2.66681913       8.71526032       9.06030345
H        1.17690114       8.84206304      10.04179682
H        1.16315183       9.33545595       8.34015258
H        0.65514159       5.35262946       9.39569269
H        0.50193328       6.71002562      10.50186345
H        3.56406090       5.95843516       8.45512556
H        5.72572333       5.26688876       9.36886363
H        5.94645301       4.69293461      11.77274262
H        3.97555804       4.80548520      13.25135360
C        1.79221578      -1.79221578       1.79221578
C        1.28723374      -2.99053296       2.29145958
C        2.09220162      -3.79373870       3.09649775
C        3.39545889      -3.39206884       3.40218134
C        3.91233511      -2.18296840       2.90897392
C        3.09388236      -1.38676880       2.09292863
C        5.26905901      -1.78223021       3.26058381
N        6.15796850      -2.37864816       4.03023810
N        7.27489094      -1.56723125       4.03512546
C        6.99372532      -0.53762444       3.26179677
S        8.07591408       0.77995251       2.92980504
C        9.66888552      -0.08867933       3.01967756
C        9.82222439      -1.16686745       1.94832558
O        8.89937120      -1.49215060       1.20099681
N       11.07917448      -1.76393879       1.83859444
C       12.26932899      -1.28612267       2.53201603
C       11.28070508      -2.77678401       0.79545705
C       11.92647484      -2.26045160      -0.47584387
C       11.61823258      -0.97123918      -0.95329567
C       12.16516316      -0.48229498      -2.14142172
C       13.01649345      -1.28126998      -2.89418566
C       13.30996682      -2.57308929      -2.46384117
C       12.76421011      -3.06430923      -1.27028284
Br      13.19510492      -4.86084256      -0.81783312
O        5.72485773      -0.59507868       2.75346323
H        0.27310478      -3.30587795       2.05991529
H        1.70707730      -4.73197145       3.48875948
H        4.01083898      -4.03209221       4.03400451
H        3.46788770      -0.44724570       1.69149318
H        9.79165135      -0.53475338       4.01198582
H       10.44409376       0.66913112       2.87282853
H       12.69197916      -0.45007128       1.96669419
H       13.00901367      -2.08908999       2.60885506
H       12.02643301      -0.94599416       3.54002953
H       10.32353908      -3.24098009       0.52866140
H       11.88763688      -3.55619794       1.26612096
H       10.92783983      -0.33088123      -0.40922124
H       11.91084051       0.51829723      -2.48251422
H       13.43644656      -0.90657573      -3.82379808
H       13.95774359      -3.19783980      -3.07430262
C       -0.00445707       0.01189536      -1.78238275
H       -0.66409135       0.67374010      -2.43557963
H        0.65740317      -0.63156657      -2.45157240
C       -0.90989263      -0.90692880      -0.91072765
C        0.90977584       0.90977584      -0.90977584
C       -0.00465871       1.77757030       0.00794375
H       -0.66225468       2.44313916      -0.64384735
H        0.64322798       2.43503045       0.67728295
C       -1.78241447       0.00034974      -0.00472694
H       -2.45427497      -0.65498947       0.64260836
H       -2.43311707       0.67328779      -0.65473579
C       -0.91132561       0.90220522       0.91563759
C       -0.01476271      -0.02253852       1.78660255
H       -0.67934791      -0.69751639       2.42135241
H        0.63392994       0.61504881       2.47327442
C        0.01484550      -1.77751727      -0.01636693
H        0.67870853      -2.42144646      -0.68295456
H       -0.62264859      -2.45592969       0.64226336
C        1.78714474       0.01002794       0.00389507
H        2.44202412       0.67113390       0.66197326
H        2.45385902      -0.65136977      -0.64189061
C        0.91606151      -0.90478549       0.90901405
