190
Properties=species:S:1:pos:R:3 pbc="F F F"
C        1.79163158       1.79163158      -1.79163158
C        1.46607057       1.97533166      -3.13397613
C        2.27593967       2.77939613      -3.93905383
C        3.41410302       3.40488828      -3.40718559
C        3.72745948       3.20865389      -2.05330859
C        2.91797923       2.40502155      -1.24727049
C        4.30021198       4.26100450      -4.28303782
N        3.61744544       5.45160381      -4.79342469
C        3.29126765       6.48259558      -3.81559236
C        3.38934062       5.54051465      -6.16416780
O        3.78019925       4.66266529      -6.93593293
C        2.66207127       6.78738405      -6.67339418
S        2.12677533       6.60973001      -8.40236911
C        0.94966538       5.34764977      -8.20133846
N        0.23466078       5.16362987      -7.10880018
N       -0.62690905       4.11948094      -7.37207277
C       -0.36408775       3.72632635      -8.60165552
O        0.62493583       4.46407558      -9.19457862
C       -1.00775677       2.70728182      -9.41416032
C       -2.33737731       2.34425503      -9.14444617
C       -2.98727710       1.38379182      -9.92265308
C       -2.30936998       0.76241446     -10.96978226
C       -0.98460700       1.10672191     -11.23427063
C       -0.33361567       2.07527053     -10.46856849
H        0.58925995       1.49897553      -3.56427110
H        2.01623645       2.91642360      -4.98869127
H        4.60664082       3.67797760      -1.61726410
H        3.17577464       2.26195299      -0.20136213
H        4.68250776       3.63257230      -5.09588816
H        5.18167312       4.60545359      -3.72767797
H        4.22375116       6.83243848      -3.36029245
H        2.64573162       6.05931437      -3.04016857
H        2.78591634       7.34216010      -4.25218394
H        3.35112508       7.63582218      -6.61409899
H        1.78054327       6.99961197      -6.06270879
H       -2.87964706       2.82219145      -8.32983919
H       -4.02090756       1.12249293      -9.71121583
H       -2.81881725       0.01344457     -11.56992850
H        0.70116269       2.33078297     -10.68648406
C       -0.28069635       0.45428727     -12.30778767
C        0.30882881      -0.09212674     -13.20685820
Br       1.26204115      -0.97563198     -14.66057920
C       -1.79163158      -1.79163158      -1.79163158
C       -3.06641076      -2.15059155      -1.35837605
C       -3.86948918      -2.95984202      -2.16505843
C       -3.40387761      -3.41346895      -3.40883033
C       -2.11726849      -3.04274634      -3.82940713
C       -1.31351432      -2.23318965      -3.02356730
C       -4.26657535      -4.30370702      -4.27397194
N       -5.49099376      -3.64215790      -4.72932229
C       -5.32570809      -2.56545982      -5.69828769
C       -6.71050028      -4.12336596      -4.26015682
O       -6.76713948      -5.10050383      -3.51115416
C       -7.97622654      -3.40792702      -4.73869594
S       -9.44489171      -3.90549849      -3.78848425
C       -9.01083436      -3.24787337      -2.23994588
N       -8.26007336      -2.17730685      -2.06971062
N       -8.21203510      -1.94067673      -0.71193282
C       -8.92193854      -2.89553435      -0.14642124
O       -9.46506409      -3.76245496      -1.05607097
C       -9.26120349      -3.10404125       1.25155937
C       -9.27337812      -2.00981448       2.13186871
C       -9.61655405      -2.17779155       3.47517780
C       -9.93538595      -3.44556696       3.95812617
C       -9.91105440      -4.53905329       3.09372215
C       -9.58169366      -4.37576251       1.74723282
H       -3.44444127      -1.80980584      -0.39825948
H       -4.86454562      -3.23844883      -1.81835687
H       -1.73031957      -3.38471954      -4.78684342
H       -0.31900102      -1.95680584      -3.36328289
H       -4.48495972      -5.21727840      -3.70873008
H       -3.71975547      -4.62600401      -5.16904520
H       -4.84634646      -2.97771717      -6.59241847
H       -4.68786244      -1.78531040      -5.27204171
H       -6.26839197      -2.11225592      -5.99961250
H       -8.14319884      -3.66944294      -5.78840448
H       -7.86534861      -2.32368895      -4.65382648
H       -9.02721112      -1.01325689       1.76808443
H       -9.63516272      -1.31976943       4.14213096
H      -10.19842381      -3.57103290       5.00490088
H       -9.56502198      -5.23977805       1.08637031
C      -10.22737267      -5.85073993       3.59673400
C      -10.49228921      -6.94927749       4.01800642
Br     -10.92063686      -8.72551981       4.69916830
C       -1.79163158       1.79163158       1.79163158
C       -2.08665804       3.09425945       1.39446086
C       -2.89042162       3.89972790       2.20424011
C       -3.40445751       3.40780289       3.41391649
C       -3.09694393       2.09366065       3.79881738
C       -2.29352044       1.28723492       2.98951590
C       -4.26000617       4.28561094       4.29863721
N       -5.52366928       4.67142921       3.66737545
C       -6.50438580       3.60995760       3.47511219
C       -5.72004287       6.01500633       3.35897386
O       -4.87365178       6.86595360       3.63919209
C       -7.04248763       6.39305407       2.68730780
S       -7.01741898       8.08937522       2.03208024
C       -5.82215698       7.88950627       0.78699036
N       -5.61012253       6.76477866       0.13218965
N       -4.64334435       7.03478442      -0.81348412
C       -4.31886143       8.30195377      -0.65692107
O       -5.03074028       8.91261371       0.34023603
C       -3.40058350       9.13203313      -1.41893126
C       -3.10550016       8.79611014      -2.75028641
C       -2.24361046       9.58788409      -3.51232676
C       -1.65302916      10.71619463      -2.94639705
C       -1.92942849      11.04777671      -1.62081966
C       -2.80015009      10.26801216      -0.85793890
H       -1.69754035       3.49334281       0.46162342
H       -3.11485590       4.91838126       1.88811415
H       -3.47851737       1.68946232       4.73390283
H       -2.06344681       0.27254945       3.30309349
H       -3.66528813       5.16098869       4.58469139
H       -4.50898120       3.77072925       5.23509423
H       -6.76229175       3.19782965       4.45636070
H       -6.07129397       2.82093769       2.85298290
H       -7.42212781       3.95547333       3.00265924
H       -7.83928639       6.32686337       3.43489648
H       -7.26838828       5.71149491       1.86298084
H       -3.56045199       7.91768246      -3.20575088
H       -2.03491871       9.32365199      -4.54576950
H       -0.98064003      11.32676891      -3.54285311
H       -3.00344849      10.53914120       0.17584002
C       -1.30806467      12.20610934      -1.03279542
C       -0.78767247      13.17621292      -0.54032511
Br       0.05375771      14.74478836       0.25595772
C        1.79163158      -1.79163158       1.79163158
C        3.08013886      -1.37512849       2.12011100
C        3.88572599      -2.18487226       2.92379139
C        3.40798924      -3.41384776       3.40433988
C        2.10797153      -3.81806202       3.06338841
C        1.30143036      -3.00882121       2.26001970
C        4.28636740      -4.29812424       4.25976267
N        4.63493352      -3.68466956       5.54287086
C        3.55098097      -3.53258317       6.50589145
C        5.96805419      -3.35414775       5.77182113
O        6.84069562      -3.60091493       4.93718692
C        6.30690783      -2.70162161       7.11432006
S        7.99006354      -2.01315333       7.13565758
C        7.78882187      -0.74872058       5.96111116
N        6.65566309      -0.11184424       5.73958350
N        6.92561009       0.85789525       4.79692982
C        8.20170788       0.73247827       4.49466451
O        8.81806618      -0.26653759       5.19898626
C        9.03421233       1.52855733       3.60803037
C        8.67774781       2.85871805       3.33229413
C        9.47086419       3.65296355       2.50126715
C       10.62145376       3.12091568       1.92228866
C       10.97382786       1.79681670       2.17937438
C       10.19256113       1.00178952       3.01945174
H        3.46813178      -0.42716908       1.75720573
H        4.89334926      -1.85350604       3.17449601
H        1.71505696      -4.76821841       3.41860715
H        0.29783258      -3.33745098       2.00380619
H        5.17865020      -4.55524253       3.67707548
H        3.78541868      -5.24917420       4.48021180
H        3.15346116      -4.52658576       6.73643518
H        2.75834839      -2.91745026       6.06941591
H        3.86913927      -3.07179766       7.43932346
H        6.24007404      -3.46601592       7.89495628
H        5.60486482      -1.89535173       7.34264749
H        7.78177425       3.28789455       3.77850388
H        9.19029233       4.68500755       2.30751642
H       11.23303912       3.74235689       1.27387360
H       10.48013885      -0.03034939       3.20794148
C       12.15546501       1.24387746       1.56979105
C       13.14508613       0.78079086       1.05926500
Br      14.74521977       0.03201897       0.23378757
C       -0.00445707       0.01189536      -1.78238275
H       -0.66409135       0.67374010      -2.43557963
H        0.65740317      -0.63156657      -2.45157240
C       -0.90989263      -0.90692880      -0.91072765
C        0.90977584       0.90977584      -0.90977584
C       -0.00465871       1.77757030       0.00794375
H       -0.66225468       2.44313916      -0.64384735
H        0.64322798       2.43503045       0.67728295
C       -1.78241447       0.00034974      -0.00472694
H       -2.45427497      -0.65498947       0.64260836
H       -2.43311707       0.67328779      -0.65473579
C       -0.91132561       0.90220522       0.91563759
C       -0.01476271      -0.02253852       1.78660255
H       -0.67934791      -0.69751639       2.42135241
H        0.63392994       0.61504881       2.47327442
C        0.01484550      -1.77751727      -0.01636693
H        0.67870853      -2.42144646      -0.68295456
H       -0.62264859      -2.45592969       0.64226336
C        1.78714474       0.01002794       0.00389507
H        2.44202412       0.67113390       0.66197326
H        2.45385902      -0.65136977      -0.64189061
C        0.91606151      -0.90478549       0.90901405
