182
Properties=species:S:1:pos:R:3 pbc="F F F"
C        1.79163158       1.79163158      -1.79163158
C        1.46607057       1.97533166      -3.13397613
C        2.27593967       2.77939613      -3.93905383
C        3.41410302       3.40488828      -3.40718559
C        3.72745948       3.20865389      -2.05330859
C        2.91797923       2.40502155      -1.24727049
C        4.30021198       4.26100450      -4.28303782
N        3.61744544       5.45160381      -4.79342469
C        3.29126765       6.48259558      -3.81559236
C        3.38934062       5.54051465      -6.16416780
O        3.78019925       4.66266529      -6.93593293
C        2.66207127       6.78738405      -6.67339418
S        2.12677533       6.60973001      -8.40236911
C        0.94966538       5.34764977      -8.20133846
N        0.23466078       5.16362987      -7.10880018
N       -0.62690905       4.11948094      -7.37207277
C       -0.36408775       3.72632635      -8.60165552
O        0.62493583       4.46407558      -9.19457862
C       -1.00775677       2.70728182      -9.41416032
C       -2.33737731       2.34425503      -9.14444617
C       -2.98727710       1.38379182      -9.92265308
C       -2.30936998       0.76241446     -10.96978226
C       -0.98460700       1.10672191     -11.23427063
Br      -0.06049865       0.25019232     -12.64360585
C       -0.33361567       2.07527053     -10.46856849
H        0.58925995       1.49897553      -3.56427110
H        2.01623645       2.91642360      -4.98869127
H        4.60664082       3.67797760      -1.61726410
H        3.17577464       2.26195299      -0.20136213
H        4.68250776       3.63257230      -5.09588816
H        5.18167312       4.60545359      -3.72767797
H        4.22375116       6.83243848      -3.36029245
H        2.64573162       6.05931437      -3.04016857
H        2.78591634       7.34216010      -4.25218394
H        3.35112508       7.63582218      -6.61409899
H        1.78054327       6.99961197      -6.06270879
H       -2.87964706       2.82219145      -8.32983919
H       -4.02090756       1.12249293      -9.71121583
H       -2.81881725       0.01344457     -11.56992850
H        0.70116269       2.33078297     -10.68648406
C       -1.79163158      -1.79163158      -1.79163158
C       -2.88839785      -2.44902706      -1.23795344
C       -3.69118125      -3.25751703      -2.04569136
C       -3.40329668      -3.41238959      -3.41049061
C       -2.29452937      -2.74336365      -3.95152894
C       -1.49129878      -1.93431591      -3.14465658
C       -4.26210003      -4.30139137      -4.28076291
N       -5.63946236      -3.81968355      -4.40332803
C       -5.83275819      -2.59168871      -5.16500870
C       -6.65653576      -4.59078713      -3.84670017
O       -6.41527483      -5.66696160      -3.29656105
C       -8.08683928      -4.06099279      -3.97501742
S       -9.25186090      -4.97114710      -2.91586644
C       -8.64249187      -4.49670988      -1.35945186
N       -8.05205779      -3.34418228      -1.11085077
N       -7.78626462      -3.32054716       0.24216712
C       -8.21632283      -4.46959376       0.72202247
O       -8.77751597      -5.26854683      -0.23752722
C       -8.24787105      -4.95693471       2.09112039
C       -8.26634693      -4.03801879       3.15304183
C       -8.31843135      -4.47817171       4.47743526
C       -8.33559366      -5.84349526       4.75626218
C       -8.30244641      -6.76191142       3.70797229
Br      -8.30768140      -8.61374778       4.08812966
C       -8.26361081      -6.32840871       2.38179617
H       -3.12717499      -2.34208930      -0.18324230
H       -4.54592737      -3.77046995      -1.60495400
H       -2.04641448      -2.85019034      -5.00527770
H       -0.63540682      -1.42472512      -3.57895782
H       -4.22238608      -5.31746860      -3.87111353
H       -3.85037042      -4.36879240      -5.29564187
H       -5.47199728      -2.75917553      -6.18530929
H       -5.25742207      -1.78245880      -4.70533369
H       -6.87500603      -2.28300415      -5.22225020
H       -8.40572459      -4.17995937      -5.01536229
H       -8.13484519      -3.00267248      -3.70534637
H       -8.25417979      -2.96813070       2.94992691
H       -8.34611140      -3.75563996       5.28895016
H       -8.37279240      -6.18039360       5.78863017
H       -8.23570860      -7.05807854       1.57535743
C       -1.79163158       1.79163158       1.79163158
C       -1.94246145       3.14349788       1.48941903
C       -2.74662205       3.94846149       2.29930610
C       -3.40502738       3.40700419       3.41414531
C       -3.24165016       2.04359859       3.70417321
C       -2.43794811       1.23767598       2.89464718
C       -4.26135626       4.28226120       4.30063684
N       -5.42785071       4.82960975       3.60501348
C       -6.47107571       3.87914804       3.23923184
C       -5.48531931       6.20606069       3.40264306
O       -4.60050549       6.95232861       3.82596337
C       -6.70719542       6.75424517       2.66140891
S       -6.48504897       8.48947910       2.16434638
C       -5.20388262       8.28636864       1.00840235
N       -5.02704994       7.20458695       0.27545394
N       -3.96093914       7.46377133      -0.56006581
C       -3.54910452       8.67986955      -0.26507995
O       -4.29471091       9.26792740       0.72095171
C       -2.50168351       9.48430445      -0.87230259
C       -2.11751692       9.23348734      -2.19968037
C       -1.12920163      10.00493025      -2.81496409
C       -0.50110066      11.02595590      -2.10422982
C       -0.86656056      11.27127041      -0.78144543
Br      -0.00122351      12.64483951       0.18723650
C       -1.86273495      10.51246754      -0.16497914
H       -1.44034504       3.58128197       0.63087957
H       -2.85784692       5.00551276       2.05799164
H       -3.73689690       1.59988030       4.56510533
H       -2.32057335       0.18426900       3.13424741
H       -3.62488609       5.07474919       4.71133293
H       -4.63415995       3.71673468       5.16391005
H       -6.84833053       3.41275063       4.15540094
H       -6.05025171       3.10821563       2.58674722
H       -7.31165513       4.34264110       2.72596415
H       -7.57022976       6.69842737       3.33238911
H       -6.91368987       6.16530638       1.76386778
H       -2.60038844       8.43937013      -2.76737500
H       -0.85149531       9.80860186      -3.84729597
H        0.26951010      11.62088219      -2.58681626
H       -2.13455313      10.71513362       0.86874296
C        1.79163158      -1.79163158       1.79163158
C        3.13637957      -1.47163722       1.96736156
C        3.94142955      -2.28151105       2.77144904
C        3.40714157      -3.41411382       3.40492149
C        2.05085953      -3.72190843       3.21665400
C        1.24484939      -2.91241678       2.41300510
C        4.28285024      -4.30031672       4.26108735
N        4.80219147      -3.61433183       5.44595064
C        3.83088086      -3.27855399       6.48002075
C        6.17441790      -3.39237987       5.52722529
O        6.94009163      -3.79111838       4.64758746
C        6.69308080      -2.66161913       6.76814957
S        8.42371861      -2.13547251       6.57968334
C        8.22225824      -0.96344771       5.31294766
N        7.13227435      -0.24409946       5.13071703
N        7.39464585       0.61120625       4.08120506
C        8.62106148       0.34061991       3.68345256
O        9.21278892      -0.64770356       4.42309754
C        9.43173327       0.97551635       2.65746845
C        9.16662910       2.30466740       2.28936220
C        9.94331438       2.94623843       1.32209184
C       10.98420583       2.26036155       0.69898246
C       11.24401776       0.93600368       1.04837146
Br      12.64480479       0.00107261       0.18956734
C       10.47987052       0.29331977       2.02367259
H        3.56856458      -0.59918261       1.48475940
H        4.99293912      -2.02619231       2.90221988
H        1.61288011      -4.59673970       3.69226271
H        0.19704896      -3.16587444       2.27616636
H        5.09084489      -4.68949945       3.63062386
H        3.72494861      -5.17745153       4.61240454
H        3.37281929      -4.20716400       6.83649881
H        3.05652561      -2.63133474       6.05735421
H        4.27399484      -2.77120601       7.33505954
H        6.63456688      -3.34632455       7.62015482
H        6.08763311      -1.77617079       6.97906014
H        8.35691962       2.85311077       2.76857473
H        9.73556118       3.97961216       1.05685218
H       11.58317831       2.76334609      -0.05527639
H       10.69406867      -0.74126051       2.28310054
C       -0.00445707       0.01189536      -1.78238275
H       -0.66409135       0.67374010      -2.43557963
H        0.65740317      -0.63156657      -2.45157240
C       -0.90989263      -0.90692880      -0.91072765
C        0.90977584       0.90977584      -0.90977584
C       -0.00465871       1.77757030       0.00794375
H       -0.66225468       2.44313916      -0.64384735
H        0.64322798       2.43503045       0.67728295
C       -1.78241447       0.00034974      -0.00472694
H       -2.45427497      -0.65498947       0.64260836
H       -2.43311707       0.67328779      -0.65473579
C       -0.91132561       0.90220522       0.91563759
C       -0.01476271      -0.02253852       1.78660255
H       -0.67934791      -0.69751639       2.42135241
H        0.63392994       0.61504881       2.47327442
C        0.01484550      -1.77751727      -0.01636693
H        0.67870853      -2.42144646      -0.68295456
H       -0.62264859      -2.45592969       0.64226336
C        1.78714474       0.01002794       0.00389507
H        2.44202412       0.67113390       0.66197326
H        2.45385902      -0.65136977      -0.64189061
C        0.91606151      -0.90478549       0.90901405
