161
Properties=species:S:1:pos:R:3 pbc="F F F"
C        0.00000000       0.00000000       0.00000000
C        0.88172755       0.88172755      -0.88172755
C        0.55616655       1.06542763      -2.22407210
C        1.36603565       1.86949211      -3.02914981
C        2.50419899       2.49498425      -2.49728157
C        2.81755546       2.29874986      -1.14340457
C        2.00807520       1.49511752      -0.33736647
C        3.39030796       3.35110048      -3.37313380
N        2.70754141       4.54169979      -3.88352067
C        2.38136363       5.57269156      -2.90568834
C        2.47943659       4.63061062      -5.25426377
O        2.87029523       3.75276127      -6.02602891
C        1.75216724       5.87748003      -5.76349016
S        1.21687130       5.69982598      -7.49246509
C        0.03976136       4.43774575      -7.29143443
N       -0.67524324       4.25372585      -6.19889616
N       -1.53681307       3.20957691      -6.46216875
C       -1.27399177       2.81642233      -7.69175150
O       -0.28496820       3.55417155      -8.28467459
C       -1.91766079       1.79737779      -8.50425630
C       -3.24728134       1.43435101      -8.23454215
C       -3.89718113       0.47388779      -9.01274906
C       -3.21927401      -0.14748956     -10.05987824
C       -1.89451102       0.19681789     -10.32436660
Br      -0.97040267      -0.65971170     -11.73370182
C       -1.24351969       1.16536650      -9.55866447
H       -0.32064407       0.58907151      -2.65436708
H        1.10633243       2.00651957      -4.07878724
H        3.69673680       2.76807358      -0.70736008
H        2.26587061       1.35204896       0.70854189
H        3.77260373       2.72266827      -4.18598413
H        4.27176909       3.69554957      -2.81777395
H        3.31384714       5.92253445      -2.45038843
H        1.73582760       5.14941034      -2.13026455
H        1.87601232       6.43225607      -3.34227992
H        2.44122105       6.72591816      -5.70419497
H        0.87063925       6.08970794      -5.15280477
H       -3.78955108       1.91228743      -7.41993516
H       -4.93081159       0.21258891      -8.80131181
H       -3.72872127      -0.89645945     -10.66002448
H       -0.20874134       1.42087894      -9.77658003
C       -0.88172755      -0.88172755      -0.88172755
C       -2.09342563      -0.38962806      -1.36261259
C       -2.89956065      -1.19916172      -2.16595519
C       -2.49893911      -2.50355829      -2.49396740
C       -1.27573997      -2.98328586      -2.00068405
C       -0.46867874      -2.17436110      -1.19751936
C       -3.37981417      -3.38565626      -3.34907181
N       -3.55969378      -2.86662908      -4.70643901
C       -2.38846215      -2.89721752      -5.57406385
C       -4.83208603      -2.44679702      -5.08542793
O       -5.79157659      -2.54000156      -4.31750725
C       -4.99365924      -1.89534863      -6.50412955
S       -6.59769438      -1.07141416      -6.74005383
C       -6.38037002       0.27494910      -5.66352062
N       -5.21588777       0.83111611      -5.39260710
N       -5.47368179       1.90360427      -4.56485507
C       -6.77694913       1.91560797      -4.37284089
O       -7.42137177       0.91146523      -5.04397141
C       -7.60419871       2.85838169      -3.63815629
C       -7.15046227       4.17330703      -3.44445658
C       -7.93408540       5.10575359      -2.76112391
C       -9.17409788       4.72939672      -2.24841351
C       -9.62479716       3.42186950      -2.42374581
Br     -11.29910541       2.90776382      -1.71224586
C       -8.85223360       2.48881323      -3.11709091
H       -2.42112242       0.61744134      -1.11911344
H       -3.84711697      -0.80815060      -2.53637167
H       -0.94401734      -3.99223891      -2.23591420
H        0.47467041      -2.56180416      -0.82224394
H       -4.33835793      -3.51085758      -2.83204062
H       -2.95244253      -4.39215447      -3.44049561
H       -2.06682879      -3.93848202      -5.68145921
H       -1.58207025      -2.31374647      -5.11968577
H       -2.58204403      -2.49975722      -6.56874706
H       -4.93205296      -2.73183213      -7.20744908
H       -4.20293844      -1.17630108      -6.73391244
H       -6.18386832       4.48155889      -3.84036208
H       -7.57635992       6.12376267      -2.63049188
H       -9.77817348       5.45804106      -1.71471134
H       -9.21736478       1.47179341      -3.24314627
C       -0.88172755       0.88172755       0.88172755
C       -0.55857543       2.22512273       1.06196812
C       -1.36460376       3.02852529       1.87154852
C       -2.49791711       2.49454172       2.50400598
C       -2.80839326       1.13940847       2.31190815
C       -2.00315383       0.33522001       1.50218535
C       -3.36029198       3.36004232       3.39420794
N       -4.01180394       4.45237539       2.66858254
C       -5.05881218       4.07345880       1.72747255
C       -3.63486770       5.75820560       2.97123768
O       -2.80326238       5.99679250       3.84903052
C       -4.31923975       6.88312006       2.19077762
S       -3.49253841       8.48499839       2.43162558
C       -1.97863858       8.13707666       1.65322630
N       -1.83375703       7.29319782       0.65042391
N       -0.50931094       7.35458671       0.27103493
C        0.06637750       8.21845304       1.08210650
O       -0.80698515       8.76093057       1.98596223
C        1.43202310       8.71606741       1.09992899
C        2.19234452       8.69465335      -0.08069701
C        3.49946263       9.18621417      -0.09729582
C        4.06788616       9.68975564       1.07124519
C        3.32456400       9.70064831       2.25058916
Br       4.10294821      10.36744059       3.83909507
C        2.01323924       9.22295092       2.27079960
H        0.31514970       2.65676345       0.58118076
H       -1.10409839       4.07781287       2.00972798
H       -3.67836342       0.69934652       2.79446051
H       -2.25658989      -0.71258968       1.36537748
H       -2.73461523       3.73326495       4.21337596
H       -4.15286850       2.76591540       3.86630871
H       -5.84896885       3.55608298       2.28171820
H       -4.64436759       3.39882565       0.97230925
H       -5.50612743       4.92555636       1.21886452
H       -5.34972263       6.97273932       2.54887222
H       -4.33090522       6.66200142       1.12024532
H        1.76070177       8.30481876      -1.00144549
H        4.07158627       9.17606334      -1.02138794
H        5.08640352      10.06787071       1.05337657
H        1.44752045       9.23628593       3.19995215
C        0.88172755      -0.88172755       0.88172755
C        0.31253393      -1.60568670       1.92744565
C        1.12156376      -2.40863419       2.73447962
C        2.50269149      -2.49345524       2.50031808
C        3.05939275      -1.75723309       1.44308406
C        2.25111024      -0.95423508       0.63521387
C        3.38077623      -3.34894049       3.38482551
N        3.05869721      -4.77482009       3.29924457
C        3.37936947      -5.43881480       2.04155925
C        2.53636963      -5.39877052       4.42917084
O        2.38059308      -4.78307278       5.48541955
C        2.19449000      -6.88618848       4.31245895
S        1.21014821      -7.47540061       5.72361355
C       -0.24531348      -6.56786090       5.44639411
N       -0.67606873      -6.19680091       4.25664659
N       -1.88842564      -5.56970994       4.45364829
C       -2.10401194      -5.58500427       5.75318972
O       -1.10333357      -6.20750940       6.44970212
C       -3.25107744      -5.11979415       6.51525659
C       -4.50758116      -5.03566424       5.89352874
C       -5.63076327      -4.61259163       6.60762736
C       -5.50735942      -4.25228727       7.94818682
C       -4.26053371      -4.31895618       8.56825099
Br      -4.09107328      -3.81285308      10.38180765
C       -3.13668321      -4.75345951       7.86373498
H       -0.75472607      -1.55258535       2.12493523
H        0.66952264      -2.97008188       3.55203472
H        4.12775507      -1.80136548       1.24304990
H        2.69834473      -0.38915875      -0.17812580
H        3.29526642      -2.97441230       4.41157741
H        4.43726438      -3.23783211       3.10999612
H        4.45823348      -5.35505612       1.87348043
H        2.84565642      -4.94721875       1.22262732
H        3.11834255      -6.49554761       2.03665815
H        3.13036119      -7.45336220       4.28761079
H        1.63182750      -7.08484366       3.39648080
H       -4.61892189      -5.31483613       4.84675726
H       -6.59969078      -4.56538263       6.11739728
H       -6.38390265      -3.92067493       8.49807148
H       -2.17042167      -4.79746652       8.36167279
