169
Properties=species:S:1:pos:R:3 pbc="F F F"
C        0.00000000       0.00000000       0.00000000
C        0.88172755       0.88172755      -0.88172755
C        0.55616655       1.06542763      -2.22407210
C        1.36603565       1.86949211      -3.02914981
C        2.50419899       2.49498425      -2.49728157
C        2.81755546       2.29874986      -1.14340457
C        2.00807520       1.49511752      -0.33736647
C        3.39030796       3.35110048      -3.37313380
N        2.70754141       4.54169979      -3.88352067
C        2.38136363       5.57269156      -2.90568834
C        2.47943659       4.63061062      -5.25426377
O        2.87029523       3.75276127      -6.02602891
C        1.75216724       5.87748003      -5.76349016
S        1.21687130       5.69982598      -7.49246509
C        0.03976136       4.43774575      -7.29143443
N       -0.67524324       4.25372585      -6.19889616
N       -1.53681307       3.20957691      -6.46216875
C       -1.27399177       2.81642233      -7.69175150
O       -0.28496820       3.55417155      -8.28467459
C       -1.91766079       1.79737779      -8.50425630
C       -3.24728134       1.43435101      -8.23454215
C       -3.89718113       0.47388779      -9.01274906
C       -3.21927401      -0.14748956     -10.05987824
C       -1.89451102       0.19681789     -10.32436660
C       -1.24351969       1.16536650      -9.55866447
H       -0.32064407       0.58907151      -2.65436708
H        1.10633243       2.00651957      -4.07878724
H        3.69673680       2.76807358      -0.70736008
H        2.26587061       1.35204896       0.70854189
H        3.77260373       2.72266827      -4.18598413
H        4.27176909       3.69554957      -2.81777395
H        3.31384714       5.92253445      -2.45038843
H        1.73582760       5.14941034      -2.13026455
H        1.87601232       6.43225607      -3.34227992
H        2.44122105       6.72591816      -5.70419497
H        0.87063925       6.08970794      -5.15280477
H       -3.78955108       1.91228743      -7.41993516
H       -4.93081159       0.21258891      -8.80131181
H       -3.72872127      -0.89645945     -10.66002448
H       -0.20874134       1.42087894      -9.77658003
C       -1.19060038      -0.45561675     -11.39788365
C       -0.60107521      -1.00203076     -12.29695418
Br       0.35213712      -1.88553600     -13.75067517
C       -0.88172755      -0.88172755      -0.88172755
C       -1.87003549      -0.30138888      -1.67424191
C       -2.67732912      -1.11023547      -2.47711298
C       -2.50071116      -2.50238558      -2.49336807
C       -1.50087583      -3.07020087      -1.68863319
C       -0.69278250      -2.26213318      -0.88564351
C       -3.38615773      -3.37920714      -3.34917737
N       -3.22658060      -3.12397160      -4.78220967
C       -1.95737107      -3.52614853      -5.37622392
C       -4.30520837      -2.58247465      -5.47662797
O       -5.37856658      -2.35548682      -4.91503200
C       -4.11109833      -2.31148892      -6.97055018
S       -5.45159697      -1.29547258      -7.66209282
C       -5.14913725       0.18549952      -6.80530380
N       -3.95828350       0.58169194      -6.40078721
N       -4.12804530       1.82764448      -5.83453177
C       -5.41506427       2.09684720      -5.91596498
O       -6.12805448       1.09998372      -6.52580719
C       -6.14490080       3.29429635      -5.53336884
C       -5.47266096       4.52600512      -5.47495598
C       -6.15389416       5.69574521      -5.13130677
C       -7.51255464       5.64481360      -4.82537363
C       -8.18344349       4.42346204      -4.86669203
C       -7.51132348       3.25295587      -5.22214367
H       -2.02250424       0.77453804      -1.67482831
H       -3.44988260      -0.64929405      -3.09246260
H       -1.34629309      -4.14694110      -1.67893626
H        0.07562183      -2.71794007      -0.26705944
H       -4.42301195      -3.23419288      -3.02405131
H       -3.16292950      -4.44042230      -3.18174080
H       -1.84052780      -4.60640740      -5.23983482
H       -1.13719507      -3.00628855      -4.87201887
H       -1.89654117      -3.31223851      -6.44176863
H       -4.10354536      -3.27159081      -7.49619801
H       -3.16373663      -1.79714295      -7.15227239
H       -4.41118851       4.58082374      -5.71230674
H       -5.62398934       6.64432207      -5.10342185
H       -8.03686517       6.55744288      -4.55542146
H       -8.04893936       2.30750507      -5.24728335
C       -9.58419898       4.36969046      -4.53715800
C      -10.75733170       4.32465676      -4.26117326
Br     -12.65418810       4.25184108      -3.81492927
C       -0.88172755       0.88172755       0.88172755
C       -0.65989581       2.25655863       0.92921184
C       -1.46542701       3.06027777       1.73897278
C       -2.49715979       2.49507699       2.50422804
C       -2.70633099       1.10857065       2.44480825
C       -1.90152834       0.30399750       1.63503335
C       -3.35763670       3.36290163       3.39400391
N       -4.15325280       4.33629692       2.64321216
C       -5.23453293       3.79926039       1.82595021
C       -3.86531824       5.68830220       2.81069055
O       -2.99111606       6.06386827       3.59410107
C       -4.70058215       6.68689178       2.00566349
S       -3.99559013       8.36272031       2.05085194
C       -2.52280636       8.06908881       1.17704637
N       -2.38566361       7.15752865       0.23418650
N       -1.10458194       7.28941610      -0.25906546
C       -0.54247730       8.26064378       0.43106096
O       -1.38559209       8.80787032       1.36041554
C        0.77362858       8.86255092       0.29505096
C        1.43904678       8.80085550      -0.94019689
C        2.69484730       9.38930292      -1.10499990
C        3.30785939      10.03213456      -0.03116050
C        2.66011539      10.08459020       1.20219866
C        1.39924836       9.50989246       1.36986717
H        0.13436209       2.71270795       0.34444866
H       -1.28431551       4.13452902       1.77279472
H       -3.49601203       0.64449594       3.03166248
H       -2.07563509      -0.76812095       1.60186355
H       -2.70390392       3.85128255       4.12606967
H       -4.05826463       2.75090739       3.97592059
H       -5.93284362       3.27062088       2.48330552
H       -4.82462906       3.09763324       1.09324019
H       -5.79020024       4.56814791       1.29220015
H       -5.70401460       6.72605551       2.44126407
H       -4.77668778       6.37612362       0.96034057
H        0.97157973       8.30248371      -1.78823248
H        3.19228339       9.34579411      -2.07042160
H        4.28642035      10.48536105      -0.16409695
H        0.90829968       9.55748831       2.33952901
C        3.30030425      10.73715440       2.31481638
C        3.83646242      11.28367691       3.24663372
Br       4.70338484      12.16735759       4.75330355
C        0.88172755      -0.88172755       0.88172755
C        0.29489842      -1.77286530       1.77790256
C        1.10344437      -2.57565795       2.58557524
C        2.50189017      -2.49329425       2.50128039
C        3.07615397      -1.59000096       1.59355496
C        2.26842565      -0.78698843       0.78514511
C        3.37677628      -3.34976476       3.38800119
N        3.22787408      -4.78212868       3.12275911
C        3.74702534      -5.26416906       1.84854913
C        2.66756827      -5.57916484       4.11757787
O        2.33724453      -5.10545701       5.20638387
C        2.50918485      -7.07085011       3.81310247
S        1.45981654      -7.91202847       5.03731737
C       -0.05311942      -7.13103049       4.69103047
N       -0.40031696      -6.67369041       3.50400532
N       -1.68933073      -6.19877266       3.62549065
C       -2.03224358      -6.38226010       4.88416552
O       -1.04342342      -6.97483189       5.62246948
C       -3.29566123      -6.12446675       5.55516778
C       -4.48421027      -6.09838133       4.80744076
C       -5.71441315      -5.87441206       5.42945682
C       -5.76875823      -5.65695084       6.80492206
C       -4.59157610      -5.66656891       7.55168066
C       -3.36039349      -5.90284987       6.93805490
H       -0.78601520      -1.85067695       1.85813277
H        0.63718351      -3.26857293       3.28588280
H        4.15740332      -1.50292541       1.51184172
H        2.72909950      -0.09144862       0.08882956
H        3.14608996      -3.10400268       4.43116349
H        4.43635310      -3.10200847       3.24673104
H        4.82099843      -5.05321988       1.81255172
H        3.24693191      -4.73992282       1.02864776
H        3.60867545      -6.33456750       1.70730537
H        3.50072337      -7.53394224       3.83666856
H        2.06813827      -7.22087062       2.82414307
H       -4.45682810      -6.26755610       3.73194350
H       -6.62785369      -5.87054130       4.84040151
H       -6.72823462      -5.47990239       7.28317598
H       -2.45072940      -5.90469465       7.53475239
C       -4.64728758      -5.42822803       8.97072607
C       -4.69394594      -5.22861755      10.15917659
Br      -4.76938857      -4.90586429      12.08080058
