157
Properties=species:S:1:pos:R:3 pbc="F F F"
C        0.00000000       0.00000000       0.00000000
C        0.87899396       0.87899396      -0.87899396
C        0.46718166       1.23917824      -2.15490089
N        1.20578383       2.00624981      -2.99080030
C        2.41071938       2.42168429      -2.52532237
C        2.89200054       2.13072035      -1.25281764
C        2.11631919       1.32295497      -0.41981533
C        4.25804394       2.56350141      -0.90049292
O        5.11458187       2.45894380      -1.77745922
N        4.55164343       3.02206309       0.38966461
C        3.58305695       3.78240498       1.19886997
C        3.96977306       3.80813779       2.68372419
N        5.36201385       4.30430190       2.88583045
C        6.33831308       3.49792023       2.09518811
C        5.95460211       3.39879717       0.61180198
S        5.55048191       5.99551106       2.86390295
O        5.76300815       6.38017857       1.48536463
O        4.48185547       6.59857444       3.62840141
C        7.06699182       6.25117297       3.75331175
C        8.13007340       6.86826834       3.07211906
C        9.34165421       7.10393935       3.72296627
C        9.49821594       6.73038099       5.05426426
C        8.44285386       6.12209055       5.73623282
C        7.22033636       5.87946033       5.09334465
Br       5.88070210       5.03855223       6.14427950
H       -0.48416387       0.90758585      -2.56232885
H        3.00018020       3.00296830      -3.23134644
H        2.48387051       1.02250271       0.55624907
H        2.57745962       3.37107128       1.09822814
H        3.54946680       4.79848279       0.78898199
H        3.25683264       4.40517616       3.26085666
H        3.91859967       2.79245759       3.09705685
H        7.35128437       3.89850632       2.20009787
H        6.36083252       2.49246851       2.53458908
H        6.12074635       4.34987544       0.09494909
H        6.60735511       2.66048061       0.13108141
H        8.02406652       7.17799308       2.03356880
H       10.16085466       7.58503527       3.19276632
H       10.44014278       6.91645914       5.56580490
H        8.58494907       5.84205112       6.77852971
C       -0.87899396      -0.87899396      -0.87899396
C       -0.39053380      -1.40224965      -2.06847735
N       -1.12309934      -2.17887184      -2.90086276
C       -2.40133221      -2.43314407      -2.52324977
C       -2.96528543      -1.97244573      -1.33780738
C       -2.19161567      -1.15919655      -0.50827727
C       -4.39451328      -2.24056701      -1.08695797
O       -5.15221813      -2.14703213      -2.05173463
N       -4.84976904      -2.53780908       0.20353622
C       -4.04101655      -3.29810912       1.17253370
C       -4.56268062      -3.13838973       2.60688368
N       -6.01050170      -3.48205950       2.71207590
C       -6.82394987      -2.67357000       1.75647469
C       -6.29799317      -2.76016021       0.31655609
S       -6.36582663      -5.14245444       2.82619106
O       -6.48895616      -5.64315296       1.47428703
O       -5.43800604      -5.76061286       3.74659041
C       -7.97542591      -5.16714585       3.57771872
C       -9.02847994      -5.74987198       2.85212924
C      -10.31213317      -5.80674703       3.39625291
C      -10.55144536      -5.28802522       4.66513790
C       -9.50699821      -4.71323682       5.39152343
C       -8.21253692      -4.64966588       4.85575075
Br      -6.89678372      -3.83323358       5.95504247
H        0.62269980      -1.20196172      -2.40648890
H       -2.97929520      -3.02626410      -3.22893564
H       -2.61479930      -0.72941896       0.39409410
H       -2.99408239      -2.99283998       1.13661962
H       -4.07271864      -4.34914071       0.86289175
H       -3.96946580      -3.73691451       3.30522817
H       -4.44736088      -2.09516572       2.92852619
H       -7.87749572      -2.96708598       1.79488887
H       -6.78505464      -1.63110160       2.09744428
H       -6.51121555      -3.73930149      -0.12515565
H       -6.82615635      -2.01745877      -0.29313919
H       -8.85961607      -6.17119182       1.86231708
H      -11.12368485      -6.26183904       2.83240029
H      -11.55020039      -5.33451448       5.09391784
H       -9.71495183      -4.31764313       6.38412449
C       -0.87899396       0.87899396       0.87899396
C       -0.81683801       0.78196147       2.26246131
N       -1.57935503       1.52395825       3.09952066
C       -2.44417532       2.39395630       2.51959442
C       -2.55509063       2.57570769       1.14474021
C       -1.76890763       1.78394050       0.30624136
C       -3.59962608       3.48579658       0.63661561
O       -4.68775931       3.45339482       1.20983076
N       -3.35673047       4.30220819      -0.47489676
C       -2.03317646       4.88679689      -0.75338137
C       -1.91614778       5.37991638      -2.20187750
N       -3.01715388       6.32135464      -2.55802321
C       -4.35275459       5.70118552      -2.31289492
C       -4.48928083       5.14183976      -0.88952329
S       -2.80119560       7.93127810      -2.05038368
O       -3.33992134       8.02898123      -0.71108048
O       -1.43651242       8.32925807      -2.31374199
C       -3.85681896       8.85155849      -3.14352441
C       -4.90434510       9.59383019      -2.57195262
C       -5.75912525      10.34397484      -3.38047280
C       -5.57218660      10.36144465      -4.75929857
C       -4.52945517       9.62988135      -5.33062492
C       -3.66374247       8.87176144      -4.52905186
Br      -2.29801360       7.92328806      -5.44632684
H       -0.14741523       0.08240863       2.75592697
H       -3.07219297       2.94858548       3.21371650
H       -1.87060551       1.85176015      -0.77224150
H       -1.23609083       4.16870926      -0.55449734
H       -1.89306625       5.71494003      -0.04903869
H       -0.93898482       5.84026413      -2.37809681
H       -1.97710434       4.52630104      -2.88940498
H       -5.15780028       6.41270385      -2.52081131
H       -4.47091353       4.88625231      -3.03845388
H       -4.58176753       5.94791188      -0.15400672
H       -5.41386803       4.55519264      -0.83230636
H       -5.06072303       9.60211620      -1.49434842
H       -6.56669385      10.91984776      -2.93341800
H       -6.23430974      10.94856430      -5.39207701
H       -4.39814381       9.66112613      -6.41079946
C        0.87899396      -0.87899396       0.87899396
C        0.34575865      -1.53583604       1.97966610
N        1.07431342      -2.32050968       2.80801084
C        2.39459633      -2.44312036       2.52000935
C        3.00774912      -1.84295186       1.42483755
C        2.23507735      -1.02529366       0.59871848
C        4.46943969      -1.97827605       1.27432253
O        5.14009747      -1.90754830       2.30333912
N        5.04599407      -2.13073981       0.00730802
C        4.38063135      -2.86749482      -1.08153420
C        4.99608233      -2.54882578      -2.45072144
N        6.47133368      -2.76994173      -2.46079011
C        7.13836905      -1.98382876      -1.38115262
C        6.51211662      -2.23063801      -0.00115734
S        6.97182202      -4.38267789      -2.67240989
O        7.03181845      -4.98355601      -1.35755236
O        6.17254685      -4.99144386      -3.71196221
C        8.63095820      -4.22043692      -3.28654207
C        9.66995978      -4.77885984      -2.52259695
C       10.99197000      -4.69102751      -2.96037022
C       11.28416680      -4.05125327      -4.16108739
C       10.25444061      -3.49998710      -4.92571611
C        8.92177648      -3.58130211      -4.49662655
Br       7.63104903      -2.77971449      -5.63578870
H       -0.70368158      -1.44313660       2.24629581
H        2.96398521      -3.04680940       3.22370032
H        2.68914638      -0.49033234      -0.22935456
H        3.31221511      -2.64785980      -1.10977216
H        4.47605290      -3.93513790      -0.85222320
H        4.51049866      -3.13085224      -3.24019877
H        4.81916129      -1.49437949      -2.69954038
H        8.21256517      -2.19106855      -1.35394090
H        7.03892967      -0.92263115      -1.64284886
H        6.77170384      -3.22390195       0.38006691
H        6.92785827      -1.50297650       0.70591954
H        9.46112049      -5.29312784      -1.58575753
H       11.79283403      -5.12774073      -2.36745115
H       12.31337021      -3.98468475      -4.50725793
H       10.50447996      -3.00803418      -5.86404366
