186
Properties=species:S:1:pos:R:3 pbc="F F F"
C        1.78889798       1.78889798      -1.78889798
C        1.37708569       2.14908226      -3.06480491
N        2.11568786       2.91615384      -3.90070432
C        3.32062341       3.33158831      -3.43522639
C        3.80190457       3.04062437      -2.16272167
C        3.02622321       2.23285900      -1.32971935
C        5.16794796       3.47340544      -1.81039694
O        6.02448589       3.36884783      -2.68736324
N        5.46154745       3.93196711      -0.52023941
C        4.49296098       4.69230901       0.28896594
C        4.87967708       4.71804182       1.77382016
N        6.27191788       5.21420592       1.97592642
C        7.24821710       4.40782425       1.18528409
C        6.86450614       4.30870119      -0.29810204
S        6.46038594       6.90541508       1.95399892
O        6.67291218       7.29008259       0.57546060
O        5.39175949       7.50847847       2.71849739
C        7.97689584       7.16107700       2.84340772
C        9.03997742       7.77817237       2.16221503
C       10.25155823       8.01384338       2.81306225
C       10.40811996       7.64028502       4.14436023
C        9.35275789       7.03199458       4.82632879
C        8.13024039       6.78936436       4.18344062
H        0.42574015       1.81748987      -3.47223288
H        3.91008423       3.91287232      -4.14125047
H        3.39377454       1.93240673      -0.35365495
H        3.48736365       4.28097530       0.18832412
H        4.45937082       5.70838681      -0.12092204
H        4.16673666       5.31508019       2.35095264
H        4.82850369       3.70236161       2.18715283
H        8.26118840       4.80841034       1.29019384
H        7.27073655       3.40237254       1.62468505
H        7.03065037       5.25977946      -0.81495493
H        7.51725913       3.57038463      -0.77882262
H        8.93397055       8.08789710       1.12366477
H       11.07075869       8.49493929       2.28286230
H       11.35004681       7.82636317       4.65590087
H        9.49485309       6.75195514       5.86862568
C        7.11440531       6.15170976       4.98035700
C        6.26364343       5.61767403       5.64777446
Br       4.88803344       4.75418343       6.72693206
C       -1.78889798      -1.78889798      -1.78889798
C       -1.75605156      -3.17111828      -1.66380303
N       -2.50139337      -4.00890839      -2.42224425
C       -3.30730030      -3.43148879      -3.34864903
C       -3.42301708      -2.05643029      -3.52580323
C       -2.62893997      -1.21826732      -2.74159427
C       -4.26449187      -1.55694548      -4.63031299
O       -4.21136572      -2.17871875      -5.69061249
N       -5.04037708      -0.40208619      -4.47129070
C       -5.66771852      -0.04059520      -3.18799033
C       -6.10062965       1.43129968      -3.15456877
N       -6.97773745       1.77791901      -4.31037893
C       -6.31289164       1.44767604      -5.60554166
C       -5.81193682      -0.00281903      -5.65655352
S       -8.61631011       1.34918575      -4.14467774
O       -8.75035494      -0.00733575      -4.62984348
O       -9.05981256       1.68947845      -2.81140646
C       -9.44153805       2.43252365      -5.28555072
C      -10.16327499       1.84709024      -6.33975000
C      -10.83984185       2.64802783      -7.26052534
C      -10.80406006       4.03328500      -7.13326969
C      -10.09281857       4.61871553      -6.08432063
C       -9.40844764       3.82485817      -5.15257465
H       -1.10813520      -3.66366888      -0.94365882
H       -3.86500001      -4.12860275      -3.97060426
H       -2.64447695      -0.14345041      -2.89190886
H       -4.99365778      -0.23424479      -2.35211226
H       -6.53148986      -0.70222489      -3.05496491
H       -6.59379018       1.67007808      -2.20715211
H       -5.21554148       2.07857501      -3.20674601
H       -6.97965680       1.64970889      -6.44945698
H       -5.46229647       2.13201661      -5.71814417
H       -6.64518369      -0.70681786      -5.75338322
H       -5.18966972      -0.12585126      -6.55094540
H      -10.21270122       0.76493548      -6.45043713
H      -11.40016153       2.19045312      -8.07312727
H      -11.33388624       4.66043449      -7.84705735
H      -10.08167000       5.70400274      -6.00051529
C       -8.70371320       4.53449979      -4.11654466
C       -8.11349810       5.12882464      -3.24886954
Br      -7.15917021       6.08979767      -1.84591227
C       -1.78889798       1.78889798       1.78889798
C       -2.32396571       2.97119596       1.29581119
N       -3.10129140       3.80326715       2.02798747
C       -3.34390841       3.43292443       3.31060528
C       -2.87089354       2.25476180       3.87959527
C       -2.05725142       1.42551231       3.10603784
C       -3.12719511       2.01214661       5.31240861
O       -3.03516637       2.98288861       6.06264198
N       -3.41210341       0.72284830       5.77880227
C       -4.17119272      -0.25715580       4.98226712
C       -3.99767907      -1.68662547       5.51284514
N       -4.33042458      -1.78398959       6.96376238
C       -3.52302053      -0.81700961       7.76474634
C       -3.62347813       0.61851141       7.22931983
S       -5.98743604      -1.90724290       7.33160895
O       -6.49680266      -0.55805034       7.44878185
O       -6.60557019      -2.83849522       6.41466560
C       -5.99551407      -2.64752750       8.94657855
C       -6.57594853      -1.91862012       9.99860634
C       -6.61996295      -2.45404123      11.28641764
C       -6.09061654      -3.71753006      11.53095827
C       -5.51805337      -4.44722832      10.48759862
C       -5.46736022      -3.92018719       9.18899109
H       -2.13319010       3.30343367       0.27883913
H       -3.93793064       4.13849756       3.88777882
H       -1.61814512       0.52919441       3.53249669
H       -3.87354199      -0.22650187       3.93297471
H       -5.22413862       0.04531678       5.01922427
H       -4.59540148      -2.39333062       4.92879335
H       -2.95304250      -2.00174396       5.39241393
H       -3.80885460      -0.85003428       8.82058458
H       -2.47846642      -1.15091924       7.72087686
H       -4.60419671       1.05483514       7.44635291
H       -2.88141616       1.23712398       7.74792625
H       -7.00543036      -0.93300849       9.82578101
H       -7.07332155      -1.88767401      12.09718814
H       -6.12706107      -4.13955434      12.53300237
H       -5.11400230      -5.43553296      10.69971321
C       -4.84940705      -4.75643833       8.19278935
C       -4.33187128      -5.45679867       7.35847039
Br      -3.49505970      -6.58922210       6.00944720
C        1.78889798      -1.78889798       1.78889798
C        1.50492879      -1.94753236       3.13851171
N        2.25270934      -2.70321820       3.97661848
C        3.33397902      -3.31850625       3.43495284
C        3.67903307      -3.23654532       2.08967221
C        2.89967095      -2.43571074       1.25341988
C        4.93151483      -3.87668168       1.64355383
O        5.89902427      -3.78382306       2.39784963
N        5.00485950      -4.51141999       0.39747448
C        3.86161734      -5.22860136      -0.19391465
C        4.05073652      -5.47062645      -1.69746424
N        5.34101389      -6.15961982      -1.99043633
C        6.49468419      -5.40014460      -1.42407153
C        6.31661471      -5.08634667       0.06834799
S        5.33883205      -7.84771384      -1.77474379
O        5.68041229      -8.09839712      -0.39127524
O        4.12043407      -8.39212936      -2.33082286
C        6.69117459      -8.39303000      -2.78963948
C        7.75591977      -9.05968378      -2.15966880
C        8.84040512      -9.51957522      -2.90764098
C        8.86729783      -9.32150720      -4.28476029
C        7.80906808      -8.66460046      -4.91524487
C        6.71357669      -8.19735611      -4.17476867
H        0.65670941      -1.45369915       3.60505434
H        3.93920342      -3.88676604       4.13823755
H        3.17146669      -2.29649312       0.21187642
H        2.92986599      -4.68387325      -0.03372442
H        3.76613605      -6.17938095       0.34316267
H        3.20737850      -6.03326611      -2.10978040
H        4.06220577      -4.50983444      -2.22832773
H        7.43437052      -5.93570181      -1.59066743
H        6.57430011      -4.46175449      -1.98763057
H        6.43890646      -5.98644412       0.68003418
H        7.10431655      -4.38769482       0.37445502
H        7.74876855      -9.23429456      -1.08486023
H        9.66093189     -10.03818395      -2.41628016
H        9.70938722      -9.68248642      -4.87136454
H        7.84795758      -8.52425994      -5.99403497
C        5.68297318      -7.52950705      -4.92672216
C        4.81984273      -6.97018346      -5.55648320
Br       3.42423381      -6.06580453      -6.57475353
C       -0.00445707       0.01189536      -1.78238275
H       -0.66409135       0.67374010      -2.43557963
H        0.65740317      -0.63156657      -2.45157240
C       -0.90989263      -0.90692880      -0.91072765
C        0.90977584       0.90977584      -0.90977584
C       -0.00465871       1.77757030       0.00794375
H       -0.66225468       2.44313916      -0.64384735
H        0.64322798       2.43503045       0.67728295
C       -1.78241447       0.00034974      -0.00472694
H       -2.45427497      -0.65498947       0.64260836
H       -2.43311707       0.67328779      -0.65473579
C       -0.91132561       0.90220522       0.91563759
C       -0.01476271      -0.02253852       1.78660255
H       -0.67934791      -0.69751639       2.42135241
H        0.63392994       0.61504881       2.47327442
C        0.01484550      -1.77751727      -0.01636693
H        0.67870853      -2.42144646      -0.68295456
H       -0.62264859      -2.45592969       0.64226336
C        1.78714474       0.01002794       0.00389507
H        2.44202412       0.67113390       0.66197326
H        2.45385902      -0.65136977      -0.64189061
C        0.91606151      -0.90478549       0.90901405
