173
Properties=species:S:1:pos:R:3 pbc="F F F"
C        0.00000000       0.00000000       0.00000000
C        0.88090423       0.88090423      -0.88090423
C        1.29864729       2.12789557      -0.41942134
C        2.11113483       2.92867121      -1.22728411
C        2.51489274       2.49001736      -2.49218832
C        2.05611040       1.25341474      -2.95538958
C        1.25325243       0.44289748      -2.14594159
N        3.31936268       3.36883580      -3.24991068
C        3.91515300       3.21496738      -4.47109494
S        4.23060925       4.61354725      -5.34149364
N        4.25903769       1.93856198      -4.87683153
C        5.22475940       1.19063117      -4.04987059
C        5.14429583      -0.32549074      -4.28571368
N        5.21834769      -0.66099384      -5.72779248
C        4.22830915       0.08971992      -6.53265899
C        4.33818779       1.60143926      -6.30327367
C        6.12316539      -1.60116990      -6.25807730
S        7.31819050      -2.38608170      -5.35974856
C        6.01236450      -1.92519042      -7.71447025
C        7.08424351      -1.65965211      -8.57804760
C        6.97146188      -1.95317599      -9.93874125
C        5.78578137      -2.49048657     -10.43960401
C        4.72415580      -2.75783423      -9.57507960
C        4.83670985      -2.50186988      -8.20964651
H        0.99705806       2.48453686       0.56192664
H        2.42729937       3.89706431      -0.84781527
H        2.27237843       0.90276456      -3.95422583
H        0.91553765      -0.51964839      -2.52286809
H        3.32042001       4.33530644      -2.93710048
H        5.09243058       1.42139906      -2.98770580
H        6.22249109       1.55325589      -4.32780831
H        5.91972380      -0.81737856      -3.69768586
H        4.18139963      -0.71117106      -3.92823885
H        4.33117455      -0.09189697      -7.60004196
H        3.24054982      -0.26732128      -6.22212251
H        5.29539251       1.97239207      -6.69073531
H        3.52822684       2.10619149      -6.83960468
H        8.00804460      -1.22882166      -8.19991832
H        7.80768314      -1.75833013     -10.60786771
H        5.70050834      -2.69911340     -11.50360961
H        4.01329969      -2.72265138      -7.53622594
C        3.49120373      -3.28470182     -10.10028408
C        2.45860637      -3.72595342     -10.54014284
Br       0.78898378      -4.43941995     -11.25135724
C       -0.88090423      -0.88090423      -0.88090423
C       -0.48108921      -2.18128613      -1.18358885
C       -1.29459738      -2.98694943      -1.98554335
C       -2.50910423      -2.50466274      -2.48333144
C       -2.87726427      -1.18577573      -2.20187473
C       -2.07287155      -0.37963519      -1.38958476
N       -3.26008883      -3.37764780      -3.30037254
C       -4.49031304      -3.23160595      -3.87929633
S       -4.78997044      -4.13605171      -5.25962800
N       -5.40877619      -2.39910689      -3.26654812
C       -5.83454599      -2.73576026      -1.89495492
C       -6.42470263      -1.52639452      -1.15342162
N       -7.47928209      -0.85540380      -1.95046045
C       -7.02159708      -0.51303077      -3.31606020
C       -6.45787102      -1.73528593      -4.04974376
C       -8.76353432      -0.56799461      -1.44854386
S       -9.32105063      -1.04351849       0.07271177
C       -9.69128041       0.21371566      -2.32407958
C      -10.90143246      -0.35187870      -2.74932785
C      -11.75856216       0.37761876      -3.57608374
C      -11.39992561       1.65906319      -3.99403640
C      -10.19710234       2.21930189      -3.56360071
C       -9.34931662       1.51517088      -2.71034073
H        0.45824572      -2.57430131      -0.80361269
H       -0.96519826      -3.99869169      -2.20828900
H       -3.76454960      -0.73854743      -2.62627179
H       -2.38339090       0.64040439      -1.17577084
H       -2.74770101      -4.17132893      -3.67379698
H       -5.00771374      -3.17027342      -1.32354829
H       -6.59794731      -3.51868771      -1.98692028
H       -6.77753281      -1.84907896      -0.17341933
H       -5.64465968      -0.77486486      -0.97894288
H       -7.81436240      -0.09365652      -3.93130062
H       -6.24332731       0.24896267      -3.20098641
H       -7.25725013      -2.46286700      -4.23840276
H       -6.04421648      -1.41756349      -5.01224304
H      -11.18429939      -1.35498379      -2.43985808
H      -12.70389786      -0.05636243      -3.89696042
H      -12.06532901       2.21279023      -4.65246577
H       -8.41905373       1.95832028      -2.36614079
C       -9.81631988       3.53055120      -4.02101731
C       -9.49741458       4.62872251      -4.40410372
Br      -8.98177166       6.40437262      -5.02352203
C       -0.88090423       0.88090423       0.88090423
C       -1.28491988       2.13487732       0.42616700
C       -2.09746384       2.93569073       1.23393559
C       -2.51490864       2.49020063       2.49198913
C       -2.06978709       1.24627082       2.94885681
C       -1.26693726       0.43580678       2.13934746
N       -3.31840659       3.36938834       3.25031422
C       -3.92524001       3.21056411       4.46541120
S       -4.23650575       4.60463360       5.34451080
N       -4.28258864       1.93376838       4.85807417
C       -5.24756227       1.20029264       4.01740625
C       -5.18113777      -0.31826758       4.24164858
N       -5.26950157      -0.66469075       5.68033552
C       -4.28001220       0.07154839       6.49912747
C       -4.37593718       1.58589193       6.28107161
C       -6.18606125      -1.60175084       6.19576238
S       -7.38004371      -2.36978450       5.28159815
C       -6.08960780      -1.93829777       7.65033430
C       -7.16625868      -1.67104065       8.50742097
C       -7.06680867      -1.97634314       9.86656160
C       -5.88954415      -2.52719073      10.37254539
C       -4.82315289      -2.79616681       9.51441509
C       -4.92263765      -2.52838534       8.15023417
H       -0.97258061       2.49691534      -0.54982768
H       -2.40279831       3.90960796       0.85977268
H       -2.29690379       0.88939537       3.94306966
H       -0.93998663      -0.53241709       2.51118781
H       -3.30920728       4.33830813       2.94531152
H       -5.10482781       1.43847734       2.95823030
H       -6.24456986       1.56871791       4.29026752
H       -5.95570845      -0.79916367       3.64348631
H       -4.21850634      -0.70882955       3.88879063
H       -4.39293395      -0.11776788       7.56415348
H       -3.29266870      -0.29095243       6.19363479
H       -5.33323723       1.96144149       6.66384118
H       -3.56631582       2.07978671       6.82792049
H       -8.08350270      -1.22976075       8.12539932
H       -7.90681418      -1.78011883      10.53052537
H       -5.81452850      -2.74500576      11.43548181
H       -4.09561529      -2.75040591       7.48166486
C       -3.59873264      -3.33714817      10.04520152
C       -2.57328069      -3.79022006      10.48973515
Br      -0.91521161      -4.52279898      11.20850845
C        0.88090423      -0.88090423       0.88090423
C        0.33969403      -2.00609883       1.50017134
C        1.15218849      -2.81395016       2.30095151
C        2.50467553      -2.50909364       2.48332924
C        3.02264797      -1.35616313       1.88610362
C        2.21696243      -0.55139364       1.07373544
N        3.24865047      -3.36691062       3.32254807
C        4.57676509      -3.37639612       3.64805412
S        4.99264865      -4.08062847       5.11237303
N        5.47894208      -2.85838608       2.73710304
C        5.55923909      -3.49644280       1.40957928
C        6.18116197      -2.57012206       0.35323473
N        7.47053605      -2.00133706       0.81327323
C        7.35917158      -1.35235548       2.13916101
C        6.75905571      -2.29772219       3.18612282
C        8.65763730      -2.06455744       0.05787805
S        8.81209256      -2.88794845      -1.40818365
C        9.85865991      -1.35041622       0.59256820
C       11.01847127      -2.06850129       0.91566643
C       12.13286680      -1.39871603       1.42544431
C       12.08306122      -0.02016791       1.63166968
C       10.92839739       0.69041603       1.30341981
C        9.82192179       0.03885101       0.76141569
H       -0.70867083      -2.26036068       1.36797842
H        0.71085427      -3.68783357       2.77349111
H        4.03865894      -1.03175020       2.05895968
H        2.64323494       0.33576800       0.61129042
H        2.69702953      -3.96855810       3.92723930
H        4.57424196      -3.84509715       1.08219634
H        6.18481632      -4.39014474       1.52859424
H        6.27184201      -3.11507347      -0.58688439
H        5.51776599      -1.71709623       0.16360520
H        8.31754888      -1.00421430       2.51755636
H        6.71113166      -0.47972159       2.00449781
H        7.44793896      -3.12914670       3.38143423
H        6.60531522      -1.74827533       4.12043246
H       11.06306217      -3.14510718       0.77097191
H       13.03791195      -1.95396696       1.66534182
H       12.94942232       0.49039380       2.04597602
H        8.92827694       0.59606175       0.49465905
C       10.87006629       2.10873135       1.54545106
C       10.82121400       3.29657044       1.74815223
Br      10.74222396       5.21720577       2.07590288
