194
Properties=species:S:1:pos:R:3 pbc="F F F"
C        1.79080826       1.79080826      -1.79080826
C        2.20855131       3.03779959      -1.32932537
C        3.02103886       3.83857524      -2.13718813
C        3.42479676       3.39992138      -3.40209234
C        2.96601442       2.16331877      -3.86529361
C        2.16315646       1.35280150      -3.05584561
N        4.22926670       4.27873983      -4.15981470
C        4.82505702       4.12487141      -5.38099897
S        5.14051327       5.52345128      -6.25139767
N        5.16894171       2.84846601      -5.78673555
C        6.13466343       2.10053519      -4.95977462
C        6.05419985       0.58441328      -5.19561770
N        6.12825171       0.24891019      -6.63769651
C        5.13821318       0.99962394      -7.44256302
C        5.24809181       2.51134329      -7.21317769
C        7.03306942      -0.69126588      -7.16798132
S        8.22809453      -1.47617768      -6.26965258
C        6.92226853      -1.01528640      -8.62437428
C        7.99414753      -0.74974808      -9.48795163
C        7.88136590      -1.04327197     -10.84864527
C        6.69568539      -1.58058254     -11.34950803
C        5.63405982      -1.84793021     -10.48498363
C        5.74661388      -1.59196586      -9.11955053
H        1.90696208       3.39444088      -0.34797738
H        3.33720339       4.80696834      -1.75771930
H        3.18228246       1.81266858      -4.86412985
H        1.82544167       0.39025563      -3.43277212
H        4.23032404       5.24521046      -3.84700450
H        6.00233461       2.33130309      -3.89760983
H        7.13239512       2.46315991      -5.23771234
H        6.82962782       0.09252547      -4.60758988
H        5.09130365       0.19873296      -4.83814288
H        5.24107858       0.81800706      -8.50994598
H        4.15045384       0.64258274      -7.13202654
H        6.20529653       2.88229610      -7.60063933
H        4.43813087       3.01609551      -7.74950870
H        8.91794862      -0.31891763      -9.10982235
H        8.71758716      -0.84842610     -11.51777174
H        6.61041236      -1.78920938     -12.41351363
H        4.92320372      -1.81274736      -8.44612996
C        4.40110775      -2.37479779     -11.01018811
C        3.36851040      -2.81604940     -11.45004686
Br       1.69888781      -3.52951592     -12.16126126
C       -1.79080826      -1.79080826      -1.79080826
C       -1.21496964      -2.56141600      -2.79929063
C       -2.02520429      -3.37207247      -3.59952547
C       -3.40770211      -3.42329056      -3.39581781
C       -3.97384703      -2.61553110      -2.40524866
C       -3.16610852      -1.81213522      -1.59355983
N       -4.15374699      -4.25346290      -4.26061134
C       -5.48583567      -4.56160062      -4.28349111
S       -6.13123063      -5.02285892      -5.76127266
N       -6.18855448      -4.52236506      -3.09322372
C       -5.75819793      -5.42661053      -2.01016477
C       -6.24557001      -4.95830920      -0.63035163
N       -7.70266227      -4.68534920      -0.62684694
C       -8.10581267      -3.76259222      -1.71199525
C       -7.63217352      -4.25679793      -3.08364134
C       -8.59087393      -5.23622634       0.31731540
S       -8.15175955      -6.36431174       1.49450186
C      -10.01711720      -4.78660816       0.27236896
C      -11.03910494      -5.71205316       0.01880703
C      -12.36780272      -5.28524074      -0.03369575
C      -12.67383519      -3.93630530       0.14552960
C      -11.65362919      -3.02041856       0.40293451
C      -10.32729816      -3.43927446       0.49237407
H       -0.14204415      -2.53656330      -2.97077290
H       -1.55597314      -3.96653330      -4.37938459
H       -5.04280411      -2.55699057      -2.25928621
H       -3.62688518      -1.19889268      -0.82269157
H       -3.67628759      -4.53403722      -5.11221419
H       -4.67015567      -5.54957790      -2.01151396
H       -6.18558351      -6.41180577      -2.23587809
H       -5.95252110      -5.69524579       0.11802372
H       -5.75443507      -4.01582697      -0.35791745
H       -9.18299059      -3.62177925      -1.76426177
H       -7.64853059      -2.79423759      -1.48229495
H       -8.15338249      -5.18491596      -3.34993351
H       -7.86552001      -3.49937590      -3.83883918
H      -10.80998054      -6.76360877      -0.13526402
H      -13.16299371      -6.00524677      -0.21869231
H      -13.70962505      -3.61013722       0.08504565
H       -9.53574017      -2.72635561       0.70550946
C      -11.97014705      -1.62420335       0.55785234
C      -12.23523076      -0.45487312       0.68759602
Br     -12.66384870       1.43583498       0.89738058
C       -1.79080826       1.79080826       1.79080826
C       -2.69266654       1.20540168       2.67760806
C       -3.49292780       2.01639412       3.48748031
C       -3.39475565       3.40978226       3.42227257
C       -2.51264349       3.98134738       2.50063593
C       -1.70066240       3.17423472       1.69690645
N       -4.25277458       4.15379716       4.26124949
C       -4.35733504       5.50072632       4.47286604
S       -5.84371928       6.07139117       5.00025176
N       -3.23163556       6.28264668       4.28986103
C       -2.05556066       6.00394229       5.13547029
C       -0.75565937       6.55193672       4.52663475
N       -0.88587852       7.97963784       4.14934205
C       -2.06324559       8.22969242       3.28746212
C       -3.35422243       7.69796989       3.92042047
C        0.02338942       8.97429183       4.55888246
S        1.30996466       8.71120250       5.62033158
C       -0.16539758      10.35399635       4.01196247
C       -0.43033677      11.42413395       4.87788036
C       -0.61735769      12.70808422       4.36129730
C       -0.56085502      12.91990032       2.98385554
C       -0.29154125      11.85256015       2.12701184
C       -0.06855582      10.57301837       2.63262436
H       -2.78108902       0.12421860       2.74407273
H       -4.18856831       1.53978713       4.17353559
H       -2.45532971       5.05021503       2.35353615
H       -1.01466187       3.64031532       0.99349224
H       -5.04185805       3.63926824       4.64141271
H       -1.96292340       4.93161726       5.33670686
H       -2.24199167       6.48955655       6.10171915
H        0.06477733       6.37241793       5.22210258
H       -0.51469373       6.00966230       3.60382346
H       -2.20963709       9.28593359       3.07346094
H       -1.86929229       7.71595768       2.33981316
H       -3.59247348       8.26946910       4.82628938
H       -4.17825990       7.81603041       3.20944477
H       -0.48939634      11.26736098       5.95209602
H       -0.81128161      13.54162579       5.03402540
H       -0.72561638      13.91990218       2.58919805
H        0.15357622       9.74568277       1.96447976
C       -0.26345432      12.06934356       0.70370018
C       -0.23993151      12.25089967      -0.48832333
Br      -0.20189713      12.54446055      -2.41572453
C        1.79080826      -1.79080826       1.79080826
C        2.42959224      -2.90223027       1.24385375
C        3.24102207      -3.70256640       2.05321376
C        3.42411042      -3.39720842       3.40549164
C        2.74621262      -2.30120627       3.94720791
C        1.94309479      -1.48990903       3.13879975
N        4.24451271      -4.26830377       4.15500475
C        4.66100003      -4.21358603       5.45634133
S        5.05886394      -5.67038925       6.18610903
N        4.77356899      -2.97330326       6.05727101
C        5.71969505      -2.00690164       5.46837655
C        5.40260150      -0.55890979       5.87271955
N        5.25438575      -0.41935474       7.34111792
C        4.28741721      -1.38838505       7.90459787
C        4.63203484      -2.82937865       7.51119930
C        5.94970144       0.54115559       8.10123902
S        7.12476339       1.58154011       7.47834615
C        5.61963174       0.64505722       9.55678188
C        6.60535311       0.39456888      10.52156683
C        6.28914004       0.48147279      11.87907196
C        4.98875406       0.79684261      12.27269944
C        4.01297636       1.05048221      11.30861909
C        4.32435135       1.00112567       9.95097287
H        2.30126080      -3.15376718       0.19435237
H        3.73153799      -4.56376438       1.60658866
H        2.78938456      -2.06830820       5.00138813
H        1.43251107      -0.63671768       3.57924067
H        4.41694567      -5.17498519       3.73060813
H        5.75014348      -2.10304326       4.37806079
H        6.71687386      -2.28090511       5.83548840
H        6.16810310       0.09975308       5.46139315
H        4.44611374      -0.24703681       5.43502894
H        4.23416449      -1.34484723       8.99001990
H        3.30476061      -1.11415909       7.50614342
H        5.57726162      -3.13160647       7.97936388
H        3.84062651      -3.49772821       7.86538036
H        7.61874286       0.13519436      10.22530484
H        7.05700084       0.29879248      12.62872443
H        4.74724310       0.84461030      13.33208382
H        3.56602098       1.21144501       9.20201035
C        2.66461777       1.34649883      11.71837912
C        1.53536746       1.59441275      12.06155315
Br      -0.29053479       1.99526859      12.61643653
C       -0.00445707       0.01189536      -1.78238275
H       -0.66409135       0.67374010      -2.43557963
H        0.65740317      -0.63156657      -2.45157240
C       -0.90989263      -0.90692880      -0.91072765
C        0.90977584       0.90977584      -0.90977584
C       -0.00465871       1.77757030       0.00794375
H       -0.66225468       2.44313916      -0.64384735
H        0.64322798       2.43503045       0.67728295
C       -1.78241447       0.00034974      -0.00472694
H       -2.45427497      -0.65498947       0.64260836
H       -2.43311707       0.67328779      -0.65473579
C       -0.91132561       0.90220522       0.91563759
C       -0.01476271      -0.02253852       1.78660255
H       -0.67934791      -0.69751639       2.42135241
H        0.63392994       0.61504881       2.47327442
C        0.01484550      -1.77751727      -0.01636693
H        0.67870853      -2.42144646      -0.68295456
H       -0.62264859      -2.45592969       0.64226336
C        1.78714474       0.01002794       0.00389507
H        2.44202412       0.67113390       0.66197326
H        2.45385902      -0.65136977      -0.64189061
C        0.91606151      -0.90478549       0.90901405
