166
Properties=species:S:1:pos:R:3 pbc="F F F"
C        1.79121101       1.79121101      -1.79121101
C        1.26394361       2.35946198      -2.94625739
C        2.07539031       3.15480646      -3.75880623
C        3.41787774       3.38159554      -3.42375495
C        3.93937203       2.81027227      -2.25692555
C        3.12053577       2.01229067      -1.43943741
S        5.64362555       2.99537159      -1.78463240
O        5.77594546       2.42022404      -0.46272768
O        6.43857798       2.50699979      -2.89126777
N        5.81605632       4.67018954      -1.67329543
C        7.12379935       5.03628863      -1.26259583
S        7.83971879       4.72911545       0.24975561
C        9.26360461       5.51739105      -0.28970935
C        9.08672829       6.00761740      -1.57420988
N        7.82187217       5.76081566      -2.09920040
C       10.11950162       6.69892337      -2.45367065
C        9.43836510       7.65292208      -3.45709405
C       11.11636213       7.52834955      -1.62043654
C       10.90001863       5.63051157      -3.24399516
H        0.22761021       2.18618907      -3.22713370
H        1.64696522       3.58841422      -4.66108415
H        3.52058473       1.55024299      -0.53887100
H        5.72562470       5.08099607      -2.60398847
H       10.13942604       5.56570921       0.34096145
H        8.76301719       7.11483967      -4.13271369
H       10.17853107       8.16822185      -4.08014221
H        8.84690941       8.41638899      -2.93830540
H       11.70133846       6.89799152      -0.94103562
H       10.59794613       8.27934758      -1.01307402
H       11.82944903       8.05463789      -2.26569904
H       11.42194119       4.93978245      -2.57102758
H       11.64904635       6.08742926      -3.90034160
H       10.22855701       5.02982074      -3.86928788
C        4.16445633       4.20987609      -4.33489256
C        4.78971590       4.90356105      -5.09797030
Br       5.80070774       6.02519096      -6.33180248
C       -1.79121101      -1.79121101      -1.79121101
C       -3.17063304      -1.78735220      -1.61167775
C       -3.97466763      -2.60440620      -2.40992919
C       -3.40388488      -3.43225995      -3.38708340
C       -2.01528432      -3.42640560      -3.56487993
C       -1.20826280      -2.60173634      -2.76226471
S       -1.20028101      -4.48534233      -4.73800621
O        0.19224013      -4.09025147      -4.76088583
O       -1.58313629      -5.84245453      -4.41125472
N       -1.91989072      -4.04142445      -6.19822613
C       -1.37134787      -4.75899424      -7.29234169
S        0.21782607      -4.64770196      -7.88920273
C       -0.17295043      -5.81510127      -9.08265332
C       -1.50583751      -6.18195226      -8.98076580
N       -2.19359771      -5.52012276      -7.96816775
C       -2.24042533      -7.24265322      -9.78901709
C       -3.74564084      -6.91718966      -9.88555074
C       -1.69056772      -7.34953009     -11.22505042
C       -2.07668253      -8.60690842      -9.09093440
H       -3.62991748      -1.15917679      -0.85183870
H       -5.05209949      -2.59140897      -2.25295513
H       -0.12643329      -2.60187071      -2.88139472
H       -2.90247083      -4.31993005      -6.18820836
H        0.57959232      -6.17416673      -9.76959938
H       -4.21911051      -6.89454631      -8.89691374
H       -4.27654891      -7.66742689     -10.48291933
H       -3.90988006      -5.93908197     -10.35264177
H       -0.64068917      -7.66381056     -11.23586587
H       -1.75483984      -6.38800381     -11.74752408
H       -2.25333766      -8.08615676     -11.81029154
H       -1.02058554      -8.89307715      -9.01908853
H       -2.60132732      -9.39963709      -9.63585280
H       -2.47653311      -8.58104672      -8.07008581
C       -4.32386070      -4.23800496      -4.14735932
C       -5.09434045      -4.91281641      -4.78409040
Br      -6.34014103      -6.00392945      -5.81363070
C       -1.79121101       1.79121101       1.79121101
C       -1.28106189       2.31318383       2.97541727
C       -2.09297427       3.10851063       3.78751812
C       -3.41902129       3.38146399       3.42274296
C       -3.92315743       2.85657922       2.22683320
C       -3.10379513       2.05854554       1.40992319
S       -5.60801405       3.10162880       1.71398670
O       -5.71906485       2.56630512       0.37352721
O       -6.44629703       2.60579911       2.78474940
N       -5.73197047       4.78298589       1.64458494
C       -7.01743427       5.19622377       1.20902576
S       -7.69911699       4.95002591      -0.33006428
C       -9.11561592       5.76267553       0.19241356
C       -8.96129797       6.21291508       1.49434252
N       -7.71863942       5.91698785       2.04626096
C       -9.99904004       6.90861991       2.36443569
C       -9.32050393       7.81587458       3.41200273
C      -10.94960184       7.78762032       1.52792607
C      -10.82978680       5.84133150       3.10340705
H       -0.25798854       2.10367230       3.27927213
H       -1.67821171       3.50551595       4.71273592
H       -3.49101881       1.63228737       0.48639254
H       -5.65635277       5.16582561       2.58843086
H       -9.97196006       5.85231996      -0.46010623
H       -8.67896427       7.24118644       4.09041985
H      -10.06349327       8.33450768       4.02889418
H       -8.69445672       8.57636061       2.93078647
H      -11.53230360       7.19233791       0.81572408
H      -10.39441664       8.54006842       0.95588268
H      -11.66585244       8.31588151       2.16805201
H      -11.35129201       5.18379848       2.39766073
H      -11.58413342       6.30097276       3.75171103
H      -10.19242457       5.20554970       3.72969136
C       -4.16796221       4.20523686       4.33602591
C       -4.79520024       4.89514664       5.10090037
Br      -5.80939108       6.01067241       6.33763770
C        1.79121101      -1.79121101       1.79121101
C        3.16997600      -1.79301885       1.60666814
C        3.97394238      -2.61009363       2.40496700
C        3.40372098      -3.43232045       3.38718681
C        2.01580646      -3.42077249       3.56999090
C        1.20886491      -2.59608749       2.76731145
S        1.20124307      -4.47248112       4.74990536
O       -0.18974502      -4.07224882       4.77639338
O        1.57798801      -5.83215153       4.42670600
N        1.92776164      -4.02589517       6.20588449
C        1.38060474      -4.73749658       7.30458248
S       -0.20597461      -4.61826436       7.90678886
C        0.18490686      -5.78274517       9.10305298
C        1.51607670      -6.15480739       8.99767148
N        2.20254358      -5.49915643       7.98018821
C        2.24975080      -7.21523715       9.80710768
C        3.75647674      -6.89490167       9.89700283
C        1.70473518      -7.31491006      11.24550299
C        2.07852868      -8.58140825       9.11458842
H        3.62876733      -1.16927492       0.84289073
H        5.05083632      -2.60158329       2.24404398
H        0.12748236      -2.59185628       2.89036008
H        2.90928330      -4.30800645       6.19331950
H       -0.56642894      -6.13658042       9.79402232
H        4.22642715      -6.87756238       8.90658103
H        4.28683181      -7.64489521      10.49516810
H        3.92595622      -5.91571173      10.35993585
H        0.65377108      -7.62532944      11.26126508
H        1.77439019      -6.35173714      11.76424040
H        2.26695692      -8.05145303      11.83137602
H        1.02114749      -8.86399314       9.04761058
H        2.60227586      -9.37405993       9.66048141
H        2.47475548      -8.56069965       8.09221050
C        4.32352995      -4.23864560       4.14704944
C        5.09386996      -4.91394291       4.78343439
Br       6.33944460      -6.00584154       5.81241504
C       -0.00445707       0.01189536      -1.78238275
H       -0.66409135       0.67374010      -2.43557963
H        0.65740317      -0.63156657      -2.45157240
C       -0.90989263      -0.90692880      -0.91072765
C        0.90977584       0.90977584      -0.90977584
C       -0.00465871       1.77757030       0.00794375
H       -0.66225468       2.44313916      -0.64384735
H        0.64322798       2.43503045       0.67728295
C       -1.78241447       0.00034974      -0.00472694
H       -2.45427497      -0.65498947       0.64260836
H       -2.43311707       0.67328779      -0.65473579
C       -0.91132561       0.90220522       0.91563759
C       -0.01476271      -0.02253852       1.78660255
H       -0.67934791      -0.69751639       2.42135241
H        0.63392994       0.61504881       2.47327442
C        0.01484550      -1.77751727      -0.01636693
H        0.67870853      -2.42144646      -0.68295456
H       -0.62264859      -2.45592969       0.64226336
C        1.78714474       0.01002794       0.00389507
H        2.44202412       0.67113390       0.66197326
H        2.45385902      -0.65136977      -0.64189061
C        0.91606151      -0.90478549       0.90901405
