94
Properties=species:S:1:pos:R:3 pbc="F F F"
O        3.29805350       5.58722829      -6.02847010
C        3.06270423       4.79633401      -5.13100227
C        1.68918012       4.24208000      -4.73694328
C        2.03064683       3.33699636      -3.59023664
C        1.20249239       2.54956942      -2.81087578
C        1.79310619       1.79310619      -1.79310619
C        3.18026011       1.82581797      -1.56293887
C        4.00015216       2.62671237      -2.35988325
C        3.40661305       3.37050145      -3.36293270
N        4.00005488       4.23254195      -4.27632184
H        1.03983391       5.06105541      -4.41790511
H        1.26502825       3.68157993      -5.57366731
H        0.13130149       2.52226234      -2.98613288
H        3.61186840       1.22718926      -0.76451589
H        4.98868234       4.43669221      -4.32769240
C        5.42107910       2.66471811      -2.12940073
C        6.61110541       2.69654792      -1.93637161
Br       8.53527731       2.74801402      -1.62425986
O       -3.33383170      -6.16078280      -5.41913740
C       -3.08969728      -5.23082633      -4.66951689
C       -1.72851900      -4.88242392      -4.05726047
C       -2.05077443      -3.66467131      -3.24243409
C       -1.22321310      -2.88750385      -2.45222063
C       -1.79310619      -1.79310619      -1.79310619
C       -3.15945510      -1.48599906      -1.92356279
C       -3.97910823      -2.28205989      -2.72557965
C       -3.40617106      -3.36129815      -3.37257798
N       -4.00389627      -4.29052781      -4.21449460
H       -1.38812787      -5.70594431      -3.42472224
H       -1.01573261      -4.65173756      -4.85280531
H       -0.16806486      -3.12208888      -2.34954297
H       -3.57520596      -0.62893312      -1.39943448
H       -4.98057900      -4.29772512      -4.47476283
C       -5.37880916      -1.97308064      -2.86330813
C       -6.55105868      -1.71431052      -2.97865573
Br      -8.44648703      -1.29590112      -3.16516304
O       -6.31678460       5.18759489       3.40937240
C       -5.34901632       4.49414423       3.14687996
C       -5.05665702       3.79892404       1.81262233
C       -3.75382966       3.11023969       2.09381048
C       -2.97945774       2.31589757       1.26758227
C       -1.79310619       1.79310619       1.79310619
C       -1.39352903       2.06063735       3.11485058
C       -2.18826843       2.86458806       3.93389128
C       -3.35878072       3.37625651       3.40500996
N       -4.30627532       4.19102336       4.01161999
H       -5.84819802       3.07852308       1.59207333
H       -4.94895044       4.54750143       1.02382362
H       -3.28530678       2.10757670       0.24681324
H       -0.46614203       1.64076596       3.49666556
H       -4.25986645       4.53070592       4.96249458
C       -1.78486724       3.14227677       5.28805392
C       -1.44701874       3.37484106       6.42216513
Br      -0.90074630       3.75087785       8.25592704
O        6.16290517      -3.33458973       5.41625699
C        5.23281025      -3.09040587       4.66682439
C        4.88685547      -1.73010179       4.05124614
C        3.66694846      -2.05158775       3.23934362
C        2.88997856      -1.22409698       2.44886204
C        1.79310619      -1.79310619       1.79310619
C        1.48340413      -3.15852829       1.92708453
C        2.27923394      -3.97809890       2.72941493
C        3.36081428      -3.40599823       3.37323467
N        4.28997887      -4.00370021       4.21523960
H        4.65940861      -1.01434278       4.84504304
H        5.71020090      -1.39377783       3.41629675
H        3.12653412      -0.16965254       2.34351005
H        0.62448360      -3.57361675       1.40547320
H        4.29528581      -4.97970777       4.47807337
C        1.96754466      -5.37683190       2.87082137
C        1.70650489      -6.54827079       2.98924926
Br       1.28442565      -8.44238840       3.18073713
C       -0.00445707       0.01189536      -1.78238275
H       -0.66409135       0.67374010      -2.43557963
H        0.65740317      -0.63156657      -2.45157240
C       -0.90989263      -0.90692880      -0.91072765
C        0.90977584       0.90977584      -0.90977584
C       -0.00465871       1.77757030       0.00794375
H       -0.66225468       2.44313916      -0.64384735
H        0.64322798       2.43503045       0.67728295
C       -1.78241447       0.00034974      -0.00472694
H       -2.45427497      -0.65498947       0.64260836
H       -2.43311707       0.67328779      -0.65473579
C       -0.91132561       0.90220522       0.91563759
C       -0.01476271      -0.02253852       1.78660255
H       -0.67934791      -0.69751639       2.42135241
H        0.63392994       0.61504881       2.47327442
C        0.01484550      -1.77751727      -0.01636693
H        0.67870853      -2.42144646      -0.68295456
H       -0.62264859      -2.45592969       0.64226336
C        1.78714474       0.01002794       0.00389507
H        2.44202412       0.67113390       0.66197326
H        2.45385902      -0.65136977      -0.64189061
C        0.91606151      -0.90478549       0.90901405
