117
Properties=species:S:1:pos:R:3 pbc="F F F"
C        0.00000000       0.00000000       0.00000000
C        0.87169941       0.87169941      -0.87169941
C        2.13431258       1.27529575      -0.51834129
C        2.71456023       2.08966910      -1.53610636
C        1.86556804       2.26482029      -2.61505735
S        0.37916854       1.44652372      -2.38677603
S        2.04080147       3.16519462      -4.13755693
O        0.94373905       4.10891095      -4.14882600
O        3.41775134       3.61006260      -4.14238669
N        1.84480645       2.07049391      -5.45080456
C        1.67744350       2.79804716      -6.73870861
C        2.92464597       1.05032743      -5.49981682
C        2.65173762       0.02471240      -6.54422331
C        3.36873072      -0.34071377      -7.66142318
Br       4.98231605       0.35074069      -8.30290425
C        2.64761844      -1.37005651      -8.27377156
N        1.53438469      -1.66064552      -7.59751201
N        1.55577742      -0.80650254      -6.55145160
C        0.46498334      -0.84006615      -5.60430633
H        2.62138981       1.01513433       0.41374588
H        3.70173432       2.53580224      -1.48608243
H        0.89678043       3.56019590      -6.65322015
H        1.34341354       2.11439297      -7.52450049
H        2.61402564       3.26981622      -7.05013028
H        2.99963212       0.53796414      -4.53404620
H        3.88751288       1.53705373      -5.68909413
H        2.87557889      -1.92296605      -9.17591208
H        0.87960250      -0.85825699      -4.59478385
H       -0.12875034      -1.74369617      -5.76759016
H       -0.15580971       0.04450463      -5.76254869
C       -0.87169941      -0.87169941      -0.87169941
C       -0.39745600      -1.59177741      -1.93871621
C       -1.44872551      -2.31843504      -2.57317515
C       -2.67154372      -2.11693712      -1.95696485
S       -2.53703461      -1.05314180      -0.62229187
S       -4.29930875      -2.74172304      -2.30252123
O       -5.11929502      -1.56819117      -2.51398982
O       -4.10014921      -3.72064173      -3.34940970
N       -4.87496337      -3.57806509      -0.91307646
C       -6.33239421      -3.86179161      -1.02001345
C       -4.07084279      -4.79142842      -0.61251902
C       -4.48731079      -5.40977700       0.67641446
C       -4.98686801      -6.66135960       0.95878748
Br      -5.35293899      -8.07384674      -0.20917527
C       -5.19043253      -6.70222644       2.34132548
N       -4.84204082      -5.55326864       2.92405828
N       -4.41622133      -4.78360050       1.89909535
C       -3.97025704      -3.43792861       2.17896213
H        0.63721414      -1.60018159      -2.25981081
H       -1.32626835      -2.95420075      -3.44314988
H       -6.88554537      -2.95196084      -1.27269027
H       -6.72950676      -4.19571268      -0.05708755
H       -6.53080437      -4.62942854      -1.77373924
H       -3.01016435      -4.52753692      -0.53394119
H       -4.16979228      -5.51463591      -1.42923255
H       -5.57338082      -7.50857924       2.95343513
H       -3.01631655      -3.27422229       1.67440948
H       -3.83401501      -3.31846713       3.25733849
H       -4.73239902      -2.74147035       1.82262575
C       -0.87169941       0.87169941       0.87169941
C       -0.39024504       1.62676231       1.91094226
C       -1.44342709       2.34395964       2.55294895
C       -2.67486663       2.10071743       1.96986163
S       -2.54598925       1.00967935       0.65679969
S       -4.30841351       2.69640354       2.33873597
O       -5.09608396       1.50985344       2.59553860
O       -4.10833405       3.70349521       3.35837138
N       -4.93446557       3.48720910       0.94443026
C       -6.39527592       3.74034731       1.07857604
C       -4.16558452       4.71115334       0.59805236
C       -4.62522698       5.28999603      -0.69454968
C       -5.15981559       6.52312087      -0.99349632
Br      -5.53195448       7.95358820       0.15041832
C       -5.39543765       6.52742831      -2.37153247
N       -5.03384192       5.37347431      -2.93606505
N       -4.56731768       4.63750363      -1.90409483
C       -4.09681639       3.29613877      -2.16373165
H        0.65094162       1.66594476       2.20777511
H       -1.31607695       3.00225811       3.40528394
H       -6.92141239       2.82433821       1.36444588
H       -6.82164009       4.04287989       0.11778701
H       -6.59429733       4.52051677       1.81915804
H       -3.10113734       4.46953578       0.50096933
H       -4.26274836       5.45061776       1.40029462
H       -5.81063781       7.31057091      -2.99268379
H       -3.12819817       3.16571608      -1.67778489
H       -3.98223676       3.15490206      -3.24199516
H       -4.83442344       2.59106640      -1.77424622
C        0.87169941      -0.87169941       0.87169941
C        1.92220672      -1.61277561       0.39296728
C        2.55959402      -2.33570869       1.44503298
C        1.96378757      -2.10825939       2.67339873
S        0.64265072      -1.02724765       2.54256992
S        2.31419813      -2.72687135       4.30248354
O        1.09380574      -3.37450449       4.73316577
O        3.54858279      -3.46731611       4.15430173
N        2.63128379      -1.39269995       5.34212118
C        2.63246646      -1.81093398       6.77079883
C        3.86322291      -0.65690119       4.95466613
C        4.03227528       0.57914312       5.76754117
C        5.04163174       0.97049413       6.61830252
Br       6.60268966       0.05797953       7.09125088
C        4.68388204       2.23304196       7.10049341
N        3.51868306       2.64116875       6.59373687
N        3.14068411       1.62642825       5.78647062
C        1.88711041       1.73365521       5.07576831
H        2.22168434      -1.64867414      -0.64758023
H        3.40872014      -2.99799149       1.31690736
H        1.72578648      -2.37567377       7.00873622
H        2.62039309      -0.93547832       7.42643559
H        3.51152678      -2.41915959       7.00328578
H        3.80791892      -0.36340800       3.90031554
H        4.73657259      -1.30807392       5.06901423
H        5.21129541       2.87603341       7.79326292
H        2.05476183       1.46886131       4.03022884
H        1.52464334       2.76367223       5.13417254
H        1.16649713       1.06035545       5.54510194
