137
Properties=species:S:1:pos:R:3 pbc="F F F"
C        0.00000000       0.00000000       0.00000000
C        0.88185520       0.88185520      -0.88185520
C        2.26690848       0.71196474      -0.86267045
C        3.07467751       1.51376156      -1.67252101
C        2.48496446       2.46755502      -2.50951395
C        1.09847779       2.65936015      -2.50327755
C        0.29495439       1.85386421      -1.69272447
S        3.51705837       3.49192142      -3.54651948
O        2.76354496       4.68359147      -3.87175900
O        4.81582837       3.58033989      -2.90959703
N        3.68156046       2.56538043      -4.97842176
C        4.43322373       1.29812602      -4.82643218
C        2.43948378       2.47701963      -5.78151471
C        2.65931412       1.74696130      -7.05781705
C        2.14510684       0.55671055      -7.51873355
C        2.71704640       0.34312037      -8.77613757
N        3.54042335       1.33699539      -9.11805542
N        3.47297031       2.19170639      -8.07336662
C        4.26511260       3.40040251      -8.11124014
H        2.72470877      -0.03449195      -0.21781947
H        4.15547969       1.38966095      -1.64320594
H        0.63746525       3.42585466      -3.12235181
H       -0.78348759       1.99530190      -1.69512130
H        5.26053312       1.40734309      -4.12008359
H        4.89414935       1.01623829      -5.77804683
H        3.78015140       0.48803089      -4.49121602
H        2.07683453       3.48365283      -6.01933709
H        1.65824011       1.97568692      -5.20286600
H        2.57932139      -0.48559097      -9.45813492
H        3.72502489       4.20480520      -7.60816166
H        4.43627487       3.67974726      -9.15465286
H        5.21664404       3.19920200      -7.61382068
C        1.21835973      -0.33786331      -6.87493437
C        0.44220902      -1.08706891      -6.33575255
Br      -0.81276103      -2.29847102      -5.46394114
C       -0.88185520      -0.88185520      -0.88185520
C       -1.67774084      -1.86743705      -0.29636578
C       -2.48903355      -2.67127832      -1.10064820
C       -2.50954349      -2.46759688      -2.48489306
C       -1.68617873      -1.50101226      -3.07392450
C       -0.87784505      -0.69866263      -2.26503540
S       -3.54791398      -3.49389831      -3.51368698
O       -3.00664518      -3.45717584      -4.85507441
O       -3.73576269      -4.75154125      -2.81846136
N       -5.04290192      -2.65678977      -3.52567096
C       -5.74148059      -2.59533068      -2.22097066
C       -5.01463091      -1.38985831      -4.29352890
C       -6.35646345      -0.75269788      -4.35493113
C       -6.81359869       0.44291332      -3.84986558
C       -8.16770446       0.51941571      -4.18801559
N       -8.56377581      -0.55122920      -4.88046916
N       -7.44453717      -1.30025575      -4.99325040
C       -7.51939635      -2.56138403      -5.69597487
H       -1.66755046      -2.02069745       0.78021163
H       -3.09627221      -3.44957856      -0.64249580
H       -1.66824433      -1.36446098      -4.15296641
H       -0.24550566       0.05972398      -2.72115393
H       -5.61147355      -3.52158971      -1.65489653
H       -6.82011310      -2.49350790      -2.37481347
H       -5.38474914      -1.75473472      -1.61991444
H       -4.67837866      -1.58266323      -5.31878255
H       -4.30059420      -0.69659483      -3.83960400
H       -8.88580579       1.29694477      -3.96300432
H       -6.57745099      -2.74363366      -6.21690710
H       -8.33115362      -2.51232591      -6.42719546
H       -7.71835782      -3.34739752      -4.96391137
C       -6.09558811       1.44269184      -3.10253451
C       -5.49425425       2.28000635      -2.47664475
Br      -4.52194827       3.63387309      -1.46463393
C       -0.88185520       0.88185520       0.88185520
C       -1.97897106       0.32339926       1.53917335
C       -2.78344008       1.12706930       2.35045070
C       -2.46991976       2.48133709       2.51077658
C       -1.38892422       3.04724781       1.82494345
C       -0.58657609       2.23889587       1.01607111
S       -3.49709261       3.50912608       3.54928058
O       -3.30276375       4.88164915       3.13448253
O       -4.81907731       2.91568190       3.57100608
N       -2.79832706       3.32423476       5.10280083
C       -2.90620952       1.96652326       5.68504916
C       -1.47540038       3.97590566       5.24671208
C       -0.95743229       3.87040271       6.63625746
C        0.14739493       3.22516104       7.14278484
C        0.13034864       3.44331854       8.52333444
N       -0.91111843       4.19369223       8.89066351
N       -1.54572249       4.46386961       7.72845122
C       -2.74682058       5.26766680       7.76226787
H       -2.21820814      -0.73079363       1.42062178
H       -3.64757974       0.69197212       2.84879472
H       -1.16356671       4.10767483       1.91443018
H        0.25986587       2.67580008       0.49100140
H       -3.86036726       1.49774597       5.42984655
H       -2.88864747       2.02198964       6.77779736
H       -2.08913664       1.32415435       5.34610732
H       -1.55302250       5.03830188       4.98850007
H       -0.76072069       3.52192305       4.55414929
H        0.81980683       3.09198782       9.27968435
H       -2.80123420       5.87801586       6.85874169
H       -2.71066154       5.92279234       8.63722111
H       -3.60463734       4.59473134       7.83029804
C        1.14270937       2.45294373       6.44519642
C        1.97628521       1.80621173       5.86096612
Br       3.32410684       0.76050079       4.91631514
C        0.88185520      -0.88185520       0.88185520
C        1.58713655      -0.31179263       1.94261449
C        2.38983940      -1.11753762       2.75358307
C        2.46412537      -2.49262623       2.50528183
C        1.78242301      -3.05753735       1.42115513
C        0.97976122      -2.24768252       0.61409933
S        3.48893542      -3.52372903       3.54283482
O        3.80846884      -4.71855095       2.79187564
O        4.53536780      -2.68231564       4.08808185
N        2.43651144      -3.96945114       4.81940007
C        2.00350503      -2.85742153       5.69685538
C        1.36925211      -4.91421367       4.41455234
C        0.54502136      -5.34442325       5.57464785
C       -0.78557633      -5.14374818       5.86237911
C       -1.01522305      -5.75155769       7.09996969
N        0.09141431      -6.32302589       7.58103396
N        1.02165064      -6.08685083       6.62954185
C        2.36722232      -6.57321593       6.83631700
H        1.52343771       0.75567410       2.14027267
H        2.95112093      -0.66721016       3.57001549
H        1.86738256      -4.11905990       1.19922926
H        0.44144729      -2.68779169      -0.22230338
H        2.80764193      -2.13229427       5.84802360
H        1.75816898      -3.23669143       6.69357407
H        1.13080011      -2.34421815       5.28438005
H        1.81415276      -5.80646339       3.95920829
H        0.72686178      -4.44808981       3.66184143
H       -1.92925808      -5.80444407       7.67667935
H        2.80157558      -6.85981103       5.87660514
H        2.33125671      -7.44877507       7.49064321
H        2.94881509      -5.77600326       7.30484837
C       -1.78165596      -4.44376287       5.09332388
C       -2.61587265      -3.85752518       4.44924013
Br      -3.96473049      -2.90962841       3.40781118
