169
Properties=species:S:1:pos:R:3 pbc="F F F"
C        0.00000000       0.00000000       0.00000000
O        5.53559538      10.59599984      -5.16225131
C        4.85467779       9.91205420      -4.40542831
C        4.48186120       8.50313968      -4.79589209
C        5.71132821       7.62414477      -4.66488606
N        5.43826237       6.26137122      -5.07781073
C        5.85886810       5.66224354      -6.22600145
C        5.42474106       4.36193224      -6.15274032
C        4.71846746       4.26788112      -4.92562342
N        4.69759616       5.45875908      -4.28540214
C        4.06052735       3.06861857      -4.37530274
O        4.20508372       1.96665090      -4.89015808
N        3.27243034       3.36799478      -3.28138812
C        2.49591554       2.49587192      -2.50421285
C        2.56060467       1.10380419      -2.60428027
C        1.75817692       0.29621752      -1.79062778
C        0.88140193       0.88140193      -0.88140193
C        0.80611843       2.26710643      -0.77096577
C        1.61932962       3.07076989      -1.57555203
N        4.39712245      10.26851876      -3.15103232
C        4.54625166      11.51611253      -2.50909760
C        5.18595062      12.61860897      -3.08066565
C        5.27577775      13.82939141      -2.38383087
C        4.72598602      13.94044782      -1.11034042
Br       4.84164565      15.57735701      -0.17393714
C        4.08853193      12.85066341      -0.52522636
C        3.99977245      11.64269631      -1.22428150
H        4.11247190       8.52001814      -5.82817927
H        3.65834273       8.12886591      -4.17706095
H        6.06696029       7.58411757      -3.62804087
H        6.53920725       8.00025665      -5.27753765
H        6.43149118       6.19001931      -6.97663872
H        5.58121019       3.57415538      -6.87756209
H        3.24274213       4.36300676      -3.07036172
H        3.23994475       0.61251128      -3.29475962
H        1.83029225      -0.78489844      -1.87777550
H        0.11990040       2.73077949      -0.06744606
H        1.54340233       4.15078980      -1.47973049
H        3.88393773       9.56823689      -2.62924494
H        5.62312307      12.57697487      -4.07347793
H        5.77459444      14.67519911      -2.85028268
H        3.65668405      12.92962935       0.46893273
H        3.49497112      10.80662762      -0.74696182
O       -5.11297112      -5.58903517     -10.59184023
C       -4.35618492      -4.90882752      -9.90714786
C       -4.75667273      -4.51837576      -8.50584447
C       -4.64634515      -5.74035104      -7.61366285
N       -5.06982373      -5.44987567      -6.25774492
C       -6.22788243      -5.85335516      -5.66587550
C       -6.16302806      -5.40718686      -4.36919871
C       -4.92999473      -4.71201423      -4.26996304
N       -4.27802379      -4.70910408      -5.45462951
C       -4.38493916      -4.04769797      -3.07181154
O       -4.91190694      -4.17637808      -1.97360769
N       -3.28045594      -3.27328353      -3.36807377
C       -2.50421248      -2.49583425      -2.49595358
C       -2.61847328      -2.54584210      -1.10437376
C       -1.80487215      -1.74347297      -0.29667711
C       -0.88140193      -0.88140193      -0.88140193
C       -0.75673113      -0.82083915      -2.26662034
C       -1.56141127      -1.63404043      -3.07019984
N       -3.09393235      -4.46704884     -10.25569233
C       -2.44136846      -4.63469775     -11.49539558
C       -3.00843287      -5.27961525     -12.59717712
C       -2.30074931      -5.38814051     -13.80011020
C       -1.02088800      -4.85190523     -13.90398103
Br      -0.06976035      -4.99278890     -15.53039055
C       -0.44017709      -4.20948950     -12.81475511
C       -1.15006387      -4.10203785     -11.61464855
H       -5.78506111      -4.13912789      -8.53648031
H       -4.13344387      -3.69728372      -8.13354201
H       -3.61348940      -6.10565963      -7.55996971
H       -5.26342006      -6.56588155      -7.98769993
H       -6.97893969      -6.42380205      -6.19540747
H       -6.89699743      -5.54882444      -3.58710579
H       -3.05946076      -3.25544701      -4.36120285
H       -3.32035993      -3.21355297      -0.61330275
H       -1.90325719      -1.80409240       0.78418030
H       -0.04200685      -0.14610625      -2.73001283
H       -1.45432639      -1.56968314      -4.14991309
H       -2.57396915      -3.95210667      -9.55534375
H       -4.00585804      -5.70666061     -12.56105722
H       -2.76382264      -5.89068748     -14.64556611
H        0.55890618      -3.78814872     -12.88813813
H       -0.67596990      -3.59370857     -10.77888209
O      -10.58173732       5.68700842       5.02510079
C       -9.90490168       4.93060991       4.33664871
C       -8.43483734       5.20696897       4.13908665
C       -7.70320391       4.87202469       5.42513044
N       -6.28701035       5.16607352       5.32436045
C       -5.62990384       6.20219105       5.91501819
C       -4.30433263       6.03622710       5.59885391
C       -4.25292808       4.87721117       4.78183275
N       -5.48982578       4.36778749       4.58414412
C       -3.04887769       4.27009952       4.18547146
O       -1.92445967       4.65299200       4.48444102
N       -3.36623215       3.29114273       3.26443836
C       -2.49509835       2.50412787       2.49677409
C       -1.11386186       2.45383096       2.70099631
C       -0.30737231       1.63975608       1.89789384
C       -0.88140193       0.88140193       0.88140193
C       -2.25621310       0.92176365       0.66621388
C       -3.06077373       1.72545032       1.47942749
N      -10.32780095       3.76777392       3.72109865
C      -11.63853128       3.24663614       3.68629438
C      -12.74289372       3.86652535       4.27580618
C      -14.01618391       3.29276096       4.18005516
C      -14.18833802       2.09434692       3.49408932
Br     -15.90862911       1.32481206       3.35949863
C      -13.09805909       1.46214281       2.90421980
C      -11.82745976       2.03829636       3.00099414
H       -8.31721707       6.26543806       3.87801418
H       -8.03711191       4.63241680       3.29474089
H       -7.79690842       3.80794119       5.67426912
H       -8.10377512       5.44023979       6.27298663
H       -6.14150907       6.94648297       6.51015716
H       -3.47269823       6.65829425       5.90193517
H       -4.36821958       3.18740209       3.12048895
H       -0.63288569       3.02364700       3.49068296
H        0.76395889       1.60799479       2.07913339
H       -2.71034547       0.33683096      -0.12905049
H       -4.13143605       1.74886463       1.29362193
H       -9.63013651       3.22680218       3.22448087
H      -12.65407293       4.80463867       4.81486426
H      -14.86164466       3.79526089       4.64317067
H      -13.22452356       0.52604360       2.36681352
H      -10.99204101       1.52659520       2.52992435
O        4.14898127     -10.21249657       6.93236869
C        3.44279245      -9.54771499       6.18165286
C        3.58936438      -8.04649209       6.14503650
C        4.87680151      -7.70435070       5.41920684
N        5.10995886      -6.27353867       5.39394679
C        6.03364472      -5.58944021       6.12402816
C        5.93867684      -4.28091332       5.71982347
C        4.90156021      -4.25877365       4.75163814
N        4.36695969      -5.48962705       4.58517064
C        4.41515417      -3.08370158       4.00559292
O        4.99670108      -2.00697538       4.05821624
N        3.25173297      -3.35677088       3.31330939
C        2.49877114      -2.49381234       2.50341683
C        2.93791102      -1.23007703       2.10070108
C        2.13291795      -0.42576778       1.28633649
C        0.88140193      -0.88140193       0.88140193
C        0.43069268      -2.13831959       1.27517835
C        1.24332148      -2.94502700       2.07730306
N        2.50957708     -10.02574026       5.28135618
C        2.11428042     -11.36668180       5.09049957
C        2.61551461     -12.44255822       5.82715242
C        2.15683125     -13.74347641       5.58869237
C        1.19455293     -13.97232063       4.60990069
Br       0.57114840     -15.72769385       4.29409755
C        0.68754630     -12.91209840       3.86477700
C        1.14725783     -11.61354433       4.10594810
H        3.60447184      -7.67838754       7.17780993
H        2.72428839      -7.57901936       5.66096184
H        4.85342664      -8.04790258       4.37778952
H        5.74325174      -8.17652050       5.89722930
H        6.67845474      -6.07716239       6.84253207
H        6.52485782      -3.44066358       6.06740626
H        2.90501143      -4.30042485       3.47067434
H        3.91222736      -0.84621097       2.38877731
H        2.49701620       0.55052772       0.97668081
H       -0.54745554      -2.49805103       0.96753045
H        0.87306887      -3.92118002       2.37967373
H        2.03997730      -9.34521039       4.69623188
H        3.36227726     -12.30779906       6.60349955
H        2.55824875     -14.56466987       6.17715761
H       -0.06413986     -13.08283569       3.09868484
H        0.73427071     -10.80182428       3.51246557
