190
Properties=species:S:1:pos:R:3 pbc="F F F"
O        6.44549940      11.50590387      -6.07215533
C        5.76458182      10.82195822      -5.31533234
C        5.39176522       9.41304371      -5.70579611
C        6.62123224       8.53404879      -5.57479009
N        6.34816639       7.17127524      -5.98771476
C        6.76877213       6.57214756      -7.13590547
C        6.33464509       5.27183627      -7.06264435
C        5.62837148       5.17778514      -5.83552745
N        5.60750018       6.36866310      -5.19530617
C        4.97043138       3.97852260      -5.28520676
O        5.11498775       2.87655492      -5.80006210
N        4.18233436       4.27789881      -4.19129214
C        3.40581956       3.40577595      -3.41411687
C        3.47050870       2.01370822      -3.51418430
C        2.66808094       1.20612155      -2.70053181
C        1.79130596       1.79130596      -1.79130596
C        1.71602245       3.17701045      -1.68086979
C        2.52923364       3.98067391      -2.48545606
N        5.30702647      11.17842278      -4.06093634
C        5.45615569      12.42601656      -3.41900163
C        6.09585465      13.52851299      -3.99056967
C        6.18568177      14.73929543      -3.29373489
C        5.63589004      14.85035184      -2.02024444
Br       5.75154967      16.48726103      -1.08384117
C        4.99843595      13.76056744      -1.43513038
C        4.90967647      12.55260034      -2.13418552
H        5.02237593       9.42992217      -6.73808329
H        4.56824676       9.03876993      -5.08696498
H        6.97686432       8.49402160      -4.53794489
H        7.44911127       8.91016067      -6.18744167
H        7.34139521       7.09992333      -7.88654274
H        6.49111421       4.48405940      -7.78746611
H        4.15264616       5.27291079      -3.98026575
H        4.14984877       1.52241530      -4.20466365
H        2.74019627       0.12500558      -2.78767952
H        1.02980442       3.64068351      -0.97735008
H        2.45330635       5.06069383      -2.38963451
H        4.79384175      10.47814091      -3.53914897
H        6.53302709      13.48687890      -4.98338195
H        6.68449846      15.58510314      -3.76018671
H        4.56658807      13.83953338      -0.44097130
H        4.40487514      11.71653165      -1.65686584
O      -10.30544786      -4.56713260      -9.15097814
C       -9.58327238      -3.82639637      -8.49220363
C       -8.77153970      -4.38799680      -7.35106854
C       -7.61711100      -5.18648952      -7.92647060
N       -6.82267120      -5.80270179      -6.88178340
C       -6.79919889      -7.12404185      -6.55358442
C       -5.85629627      -7.24915612      -5.56367331
C       -5.37365096      -5.93484488      -5.33318824
N       -6.00594419      -5.03994988      -6.12557539
C       -4.33743049      -5.53201854      -4.36471171
O       -3.67356774      -6.36208253      -3.75595450
N       -4.26341848      -4.15967684      -4.22842999
C       -3.41002963      -3.41247534      -3.40320742
C       -2.32665572      -3.96018111      -2.71156438
C       -1.51435547      -3.15037798      -1.91000084
C       -1.79130596      -1.79130596      -1.79130596
C       -2.86758804      -1.23186577      -2.47444889
C       -3.66874349      -2.04115266      -3.28546746
N       -9.36968551      -2.47687524      -8.69982484
C       -9.99344223      -1.64987972      -9.65785192
C      -10.96876342      -2.09058615     -10.55558774
C      -11.55347446      -1.20079244     -11.46444520
C      -11.16245421       0.13460420     -11.47863632
Br     -11.95765980       1.33596752     -12.70095960
C      -10.18967831       0.58897378     -10.59342924
C       -9.60802372      -0.30226484      -9.68617377
H       -9.42847542      -5.02011219      -6.74179377
H       -8.41237039      -3.58811246      -6.69349881
H       -6.94360635      -4.55091242      -8.51431203
H       -7.97322917      -5.98308419      -8.59040025
H       -7.42699442      -7.85316697      -7.04769989
H       -5.54765187      -8.15532912      -5.05965873
H       -4.96124897      -3.66498547      -4.77958825
H       -2.07457972      -5.01382655      -2.78852145
H       -0.67097688      -3.59448361      -1.38742087
H       -3.09302903      -0.17288340      -2.38192559
H       -4.50799688      -1.58849532      -3.80714248
H       -8.70232460      -2.01520232      -8.09360472
H      -11.30691191      -3.12200861     -10.57436743
H      -12.31350621      -1.56539454     -12.15088754
H       -9.87906372       1.63040264     -10.59843166
H       -8.85209612       0.07713883      -9.00331534
O       -8.92320980       4.62037777      10.47997103
C       -8.18191411       3.89893243       9.82102584
C       -7.83315535       4.27529987       8.40214982
C       -6.85741721       5.43640101       8.43625289
N       -6.51930684       5.88743756       7.10041199
C       -6.94530193       7.03247046       6.49905277
C       -6.31680547       7.07309721       5.27922303
C       -5.54229633       5.88596190       5.21342584
N       -5.70474516       5.13832692       6.32839737
C       -4.67167094       5.46026100       4.10222880
O       -4.42122253       6.20656352       3.16381873
N       -4.24150977       4.15661919       4.25339635
C       -3.41221476       3.41036970       3.40312792
C       -2.70785965       3.96104717       2.32949440
C       -1.89392771       3.15413538       1.52667120
C       -1.79130596       1.79130596       1.79130596
C       -2.48755443       1.22880210       2.85754616
C       -3.28887335       2.04035647       3.66613379
N       -7.55292692       2.74498437      10.24847430
C       -7.69060019       2.10976210      11.50081158
C       -8.53060403       2.56396448      12.52036880
C       -8.62467652       1.86464219      13.72939339
C       -7.87629815       0.70751063      13.92267755
Br      -8.00972337      -0.23930213      15.55223063
C       -7.03204533       0.24356721      12.91852124
C       -6.94088773       0.94402749      11.71154711
H       -8.75931797       4.54847767       7.88258574
H       -7.41359260       3.41977689       7.86061217
H       -5.91947976       5.15750365       8.93184739
H       -7.27180734       6.29133027       8.98357600
H       -7.63112383       7.71678056       6.97995688
H       -6.39674638       7.84275954       4.52313381
H       -4.63174010       3.69954778       5.07453482
H       -2.75582836       5.02146918       2.09963018
H       -1.34719707       3.60388669       0.70179761
H       -2.41660068       0.16477744       3.06645990
H       -3.82951554       1.58326520       4.49085395
H       -6.93080029       2.28702989       9.59330145
H       -9.13587058       3.45828451      12.40913285
H       -9.28815596       2.23461231      14.50702003
H       -6.44444066      -0.65932850      13.06198059
H       -6.27624202       0.56036625      10.94166436
O        9.14193040     -10.31266335       4.56896484
C        8.48312646      -9.59061710       3.82812882
C        7.34415824      -8.77620224       4.39024456
C        7.92263620      -7.62142652       5.18600840
N        6.88017454      -6.82437062       5.80261124
C        6.55409738      -6.79829996       7.12442782
C        5.56587088      -5.85364135       7.24961347
C        5.33407346      -5.37270340       5.93490721
N        6.12405151      -6.00765406       5.03976389
C        4.36659577      -4.33559236       5.53197261
O        3.76019469      -3.66946398       6.36194611
N        4.22826645      -4.26352666       4.15973219
C        3.40321129      -3.41001501       3.41248608
C        2.71413986      -2.32469043       3.95957093
C        1.91258023      -1.51240319       3.14975088
C        1.79130596      -1.79130596       1.79130596
C        2.47186997      -2.86954380       1.23248893
C        3.28290134      -3.67070201       2.04176026
N        8.68895501      -9.37948337       2.47794721
C        9.64469310     -10.00605187       1.65042891
C       10.54158591     -10.98209256       2.09125885
C       11.44811694     -11.56963682       1.20095835
C       11.46081755     -11.18074282      -0.13507404
Br      12.67999074     -11.97976614      -1.33710501
C       10.57642790     -10.20728868      -0.58958282
C        9.67149632      -9.62280112       0.30216489
H        6.73484747      -9.43117995       5.02435396
H        6.68589415      -8.41725630       3.59083122
H        8.51053432      -6.94985157       4.54844492
H        8.58725982      -7.97733655       5.98211725
H        7.04837300      -7.42572508       7.85376320
H        5.06377283      -5.54277579       8.15609111
H        4.77754420      -4.96300373       3.66527476
H        2.79315552      -2.07107722       5.01269497
H        1.39203012      -0.66750312       3.59334814
H        2.37732163      -3.09650593       0.17401045
H        3.80253951      -4.51148893       1.58960624
H        8.08305915      -8.71189499       2.01617750
H       10.56145983     -11.31864561       3.12318251
H       12.13393578     -12.33017520       1.56567732
H       10.58027688      -9.89832274      -1.63150687
H        8.98923157      -8.86639584      -0.07735479
C       -0.00445707       0.01189536      -1.78238275
H       -0.66409135       0.67374010      -2.43557963
H        0.65740317      -0.63156657      -2.45157240
C       -0.90989263      -0.90692880      -0.91072765
C        0.90977584       0.90977584      -0.90977584
C       -0.00465871       1.77757030       0.00794375
H       -0.66225468       2.44313916      -0.64384735
H        0.64322798       2.43503045       0.67728295
C       -1.78241447       0.00034974      -0.00472694
H       -2.45427497      -0.65498947       0.64260836
H       -2.43311707       0.67328779      -0.65473579
C       -0.91132561       0.90220522       0.91563759
C       -0.01476271      -0.02253852       1.78660255
H       -0.67934791      -0.69751639       2.42135241
H        0.63392994       0.61504881       2.47327442
C        0.01484550      -1.77751727      -0.01636693
H        0.67870853      -2.42144646      -0.68295456
H       -0.62264859      -2.45592969       0.64226336
C        1.78714474       0.01002794       0.00389507
H        2.44202412       0.67113390       0.66197326
H        2.45385902      -0.65136977      -0.64189061
C        0.91606151      -0.90478549       0.90901405
