190
Properties=species:S:1:pos:R:3 pbc="F F F"
C        1.78727125       1.78727125      -1.78727125
C        2.04319613       3.10948566      -1.44916372
C        2.88615255       3.87235430      -2.26171788
C        3.47782428       3.27325041      -3.36791455
N        3.20164136       2.00422481      -3.72275692
C        2.36867165       1.28495706      -2.93477154
N        4.41401959       4.01629721      -4.09388961
C        5.37460320       3.55359278      -4.95267653
O        6.10034170       4.36664933      -5.52910557
C        5.54311178       2.06644276      -5.14174743
C        6.89471242       1.70067322      -5.72563809
N        6.99365087       0.25229800      -5.83414838
C        6.64822471      -0.48518122      -6.92710596
C        6.70800925      -1.79613541      -6.52975763
C        7.11212877      -1.76585011      -5.16893775
N        7.30055562      -0.49519277      -4.74667180
C        7.29754750      -2.94712918      -4.29809163
O        7.08916603      -4.07111506      -4.73057874
N        7.70449128      -2.60316409      -3.02480395
C        7.99244350      -3.51076626      -2.00328531
C        8.39170010      -3.00366561      -0.76884781
C        8.70071664      -3.89080519       0.26762170
C        8.60286501      -5.25669685       0.04140374
C        8.19722470      -5.68048167      -1.20950109
N        7.89321797      -4.83504256      -2.22180631
H        1.61396010       3.54708464      -0.55245636
H        3.11222950       4.89721486      -1.98697155
H        2.20005177       0.26331081      -3.26426917
H        4.46457913       5.01224307      -3.93054554
H        4.74053360       1.70973666      -5.79831977
H        5.46701382       1.56904385      -4.16995701
H        7.71915969       2.04231043      -5.08947100
H        7.03975145       2.12473248      -6.72541884
H        6.36242351      -0.02734615      -7.86380980
H        6.47816000      -2.67444414      -7.11754592
H        7.80525146      -1.60777214      -2.86113039
H        8.46820538      -1.93542634      -0.59924217
H        9.01494792      -3.50805179       1.23418543
H        8.09961543      -6.73399515      -1.45507934
C        8.91697549      -6.20448110       1.07901621
C        9.18004301      -6.99825041       1.94801664
Br       9.60540094      -8.28170826       3.35311685
C       -1.78727125      -1.78727125      -1.78727125
C       -3.16825562      -1.64258729      -1.79100260
C       -3.93744483      -2.44245917      -2.64032072
C       -3.29401038      -3.33631272      -3.48866614
N       -1.95911456      -3.50913802      -3.46037051
C       -1.23061271      -2.73911307      -2.61867447
N       -4.07188977      -4.03506963      -4.41724700
C       -3.65876587      -4.65768467      -5.56442196
O       -4.49103940      -5.25242953      -6.25262767
C       -2.20940425      -4.56860651      -5.97329121
C       -1.99573718      -4.88339170      -7.44189484
N       -0.58405762      -4.73219205      -7.76384757
C        0.34959881      -5.72401933      -7.71572894
C        1.56141925      -5.10805289      -7.89499784
C        1.26938752      -3.72796255      -8.05664138
N       -0.06203159      -3.50220323      -7.98779983
C        2.26590089      -2.65391514      -8.26049569
O        3.45906563      -2.91709539      -8.29059995
N        1.67995777      -1.41140157      -8.39468734
C        2.37077262      -0.22161038      -8.63412479
C        1.63255549       0.95455202      -8.74398980
C        2.29773943       2.15850897      -8.99853816
C        3.67880812       2.15290551      -9.13647805
C        4.33918593       0.94579591      -9.01122596
N        3.71037874      -0.22688146      -8.76347900
H       -3.65142136      -0.90274276      -1.15933698
H       -5.01431870      -2.31398438      -2.66811284
H       -0.15867475      -2.91330956      -2.65564743
H       -5.07518629      -4.03552294      -4.29665850
H       -1.63293563      -5.26405228      -5.35160212
H       -1.85053669      -3.54820150      -5.80727649
H       -2.55825508      -4.20219293      -8.09049311
H       -2.29062508      -5.90893492      -7.69034279
H        0.08498930      -6.75535142      -7.52852505
H        2.54077318      -5.56698411      -7.89505085
H        0.66873606      -1.40425726      -8.32308851
H        0.55349712       0.95179575      -8.63731408
H        1.73339945       3.08207327      -9.08818341
H        5.41829090       0.86895931      -9.10794983
C        4.40212706       3.36887592      -9.40448116
C        5.00790668       4.38725114      -9.62893377
Br       5.98740108       6.03387774      -9.99185464
C       -1.78727125       1.78727125       1.78727125
C       -2.20961137       3.03736145       1.35487269
C       -3.04711369       3.79786390       2.17524714
C       -3.46692120       3.26386018       3.38820785
N       -3.02846921       2.07007412       3.83007975
C       -2.20307170       1.35435470       3.03097384
N       -4.40281912       3.98699697       4.13439032
C       -5.22529450       3.52773649       5.12784152
O       -5.97411419       4.32444275       5.69753967
C       -5.22009521       2.05901191       5.47219484
C       -6.46561286       1.63049074       6.22492012
N       -6.40311651       0.19833455       6.47864619
C       -5.88193408      -0.38605250       7.59426788
C       -5.84243247      -1.73094645       7.33014545
C       -6.37351363      -1.88009741       6.02180019
N       -6.73157421      -0.68344968       5.50391012
C       -6.51633061      -3.15751676       5.28969609
O       -6.15276926      -4.20600189       5.80186235
N       -7.07453270      -2.98725825       4.03885669
C       -7.36141840      -4.01895526       3.14249941
C       -7.92528601      -3.68241382       1.91401009
C       -8.23655585      -4.69737894       1.00311285
C       -7.97670960      -6.01717013       1.34522495
C       -7.41361875      -6.26890759       2.58153296
N       -7.10525225      -5.29821013       3.47293961
H       -1.91421141       3.41792977       0.38135991
H       -3.40309841       4.76290314       1.83041437
H       -1.89917040       0.39278281       3.43567854
H       -4.57155171       4.95144721       3.88436882
H       -4.32674641       1.84930718       6.07253645
H       -5.18440220       1.47282939       4.54878310
H       -7.37713587       1.82533819       5.64846706
H       -6.55933087       2.14048500       7.19008691
H       -5.55847933       0.19130157       8.44910626
H       -5.46851940      -2.51804318       7.97078556
H       -7.29294541      -2.02810505       3.79376935
H       -8.12779760      -2.64946778       1.65369139
H       -8.67817728      -4.44818405       0.04271746
H       -7.18460399      -7.27740857       2.91350420
C       -8.28683859      -7.09278013       0.43941972
C       -8.54657163      -7.99360351      -0.31919217
Br      -8.96653798      -9.45015873      -1.54580342
C        1.78727125      -1.78727125       1.78727125
C        3.09344013      -2.08571513       1.42269025
C        3.88055431      -2.86442338       2.27524704
C        3.34508764      -3.28746306       3.48643854
N        2.06707408      -3.03509729       3.82645172
C        1.31282503      -2.29482440       2.98075082
N        4.18865279      -3.95729511       4.37825850
C        4.02215567      -4.13295998       5.72575685
O        4.86481488      -4.78025450       6.35102721
C        2.83688879      -3.50150948       6.41290370
C        3.02658862      -3.38117371       7.91326140
N        1.86330376      -2.72465222       8.49214128
C        0.75703992      -3.35646715       8.97664239
C       -0.15835604      -2.36806329       9.23192422
C        0.48357629      -1.15138142       8.88025870
N        1.74033755      -1.37663145       8.43506565
C       -0.11888790       0.19699943       8.96439727
O       -1.26926265       0.33545312       9.35334548
N        0.75284295       1.18858032       8.56186851
C        0.46996366       2.55607913       8.57107802
C        1.45873884       3.43321025       8.13135370
C        1.20749536       4.80925258       8.14404697
C       -0.02188268       5.26885119       8.59549829
C       -0.95105762       4.33525995       9.01256169
N       -0.72385943       3.00099217       9.00483333
H        3.51325156      -1.70361425       0.49663529
H        4.91053823      -3.07692394       2.00895374
H        0.29698364      -2.11082225       3.31982585
H        5.07431172      -4.30010361       4.03295241
H        1.94904156      -4.10640037       6.19314811
H        2.69300465      -2.48863395       6.02437609
H        3.90669250      -2.77874000       8.16550861
H        3.13619550      -4.35947907       8.39422822
H        0.70098543      -4.43242014       9.06548159
H       -1.16707257      -2.48378122       9.60455313
H        1.66291496       0.86173112       8.25742587
H        2.41795534       3.06780587       7.78187174
H        1.97085861       5.50359805       7.80545014
H       -1.93203270       4.62508848       9.37782080
C       -0.31961820       6.67730264       8.63039902
C       -0.56897169       7.85688073       8.65962838
Br      -0.97215521       9.76415875       8.70688978
C       -0.00445707       0.01189536      -1.78238275
H       -0.66409135       0.67374010      -2.43557963
H        0.65740317      -0.63156657      -2.45157240
C       -0.90989263      -0.90692880      -0.91072765
C        0.90977584       0.90977584      -0.90977584
C       -0.00465871       1.77757030       0.00794375
H       -0.66225468       2.44313916      -0.64384735
H        0.64322798       2.43503045       0.67728295
C       -1.78241447       0.00034974      -0.00472694
H       -2.45427497      -0.65498947       0.64260836
H       -2.43311707       0.67328779      -0.65473579
C       -0.91132561       0.90220522       0.91563759
C       -0.01476271      -0.02253852       1.78660255
H       -0.67934791      -0.69751639       2.42135241
H        0.63392994       0.61504881       2.47327442
C        0.01484550      -1.77751727      -0.01636693
H        0.67870853      -2.42144646      -0.68295456
H       -0.62264859      -2.45592969       0.64226336
C        1.78714474       0.01002794       0.00389507
H        2.44202412       0.67113390       0.66197326
H        2.45385902      -0.65136977      -0.64189061
C        0.91606151      -0.90478549       0.90901405
