182
Properties=species:S:1:pos:R:3 pbc="F F F"
C        1.78727125       1.78727125      -1.78727125
C        2.04319613       3.10948566      -1.44916372
C        2.88615255       3.87235430      -2.26171788
C        3.47782428       3.27325041      -3.36791455
N        3.20164136       2.00422481      -3.72275692
C        2.36867165       1.28495706      -2.93477154
N        4.41401959       4.01629721      -4.09388961
C        5.37460320       3.55359278      -4.95267653
O        6.10034170       4.36664933      -5.52910557
C        5.54311178       2.06644276      -5.14174743
C        6.89471242       1.70067322      -5.72563809
N        6.99365087       0.25229800      -5.83414838
C        6.64822471      -0.48518122      -6.92710596
C        6.70800925      -1.79613541      -6.52975763
C        7.11212877      -1.76585011      -5.16893775
N        7.30055562      -0.49519277      -4.74667180
C        7.29754750      -2.94712918      -4.29809163
O        7.08916603      -4.07111506      -4.73057874
N        7.70449128      -2.60316409      -3.02480395
C        7.99244350      -3.51076626      -2.00328531
C        8.39170010      -3.00366561      -0.76884781
C        8.70071664      -3.89080519       0.26762170
C        8.60286501      -5.25669685       0.04140374
Br       9.01376031      -6.49651571       1.39872900
C        8.19722470      -5.68048167      -1.20950109
N        7.89321797      -4.83504256      -2.22180631
H        1.61396010       3.54708464      -0.55245636
H        3.11222950       4.89721486      -1.98697155
H        2.20005177       0.26331081      -3.26426917
H        4.46457913       5.01224307      -3.93054554
H        4.74053360       1.70973666      -5.79831977
H        5.46701382       1.56904385      -4.16995701
H        7.71915969       2.04231043      -5.08947100
H        7.03975145       2.12473248      -6.72541884
H        6.36242351      -0.02734615      -7.86380980
H        6.47816000      -2.67444414      -7.11754592
H        7.80525146      -1.60777214      -2.86113039
H        8.46820538      -1.93542634      -0.59924217
H        9.01494792      -3.50805179       1.23418543
H        8.09961543      -6.73399515      -1.45507934
C       -1.78727125      -1.78727125      -1.78727125
C       -3.16364770      -1.82945765      -1.60874015
C       -3.93995292      -2.61938963      -2.46088217
C       -3.31509769      -3.31268331      -3.49120825
N       -1.97746159      -3.30725647      -3.64390503
C       -1.23869264      -2.55124389      -2.79846371
N       -4.12249284      -3.99494213      -4.40677144
C       -3.79626045      -4.41696915      -5.66764290
O       -4.63724080      -5.03251258      -6.32634322
C       -2.43543479      -4.08696672      -6.22890045
C       -2.38480822      -4.19492563      -7.74128988
N       -1.05674129      -3.81909416      -8.20426180
C       -0.01468643      -4.67560808      -8.39985494
C        1.08104517      -3.88606450      -8.63661214
C        0.60933193      -2.54818670      -8.57636164
N       -0.71811244      -2.51251617      -8.32140604
C        1.43591016      -1.33385737      -8.75056273
O        2.63692031      -1.42943509      -8.95611493
N        0.69490107      -0.17395524      -8.64707697
C        1.20227460       1.11750595      -8.80474310
C        0.32251729       2.18885608      -8.66825566
C        0.80097697       3.49260393      -8.83587065
C        2.14206106       3.68835312      -9.13517861
Br       2.83856203       5.42154119      -9.37861881
C        2.95093837       2.57431149      -9.25149398
N        2.50367253       1.30701586      -9.09067012
H       -3.64167372      -1.24068529      -0.83114208
H       -5.01841211      -2.63395148      -2.34405233
H       -0.16837494      -2.57469508      -2.98456172
H       -5.09347860      -4.14400113      -4.16988800
H       -1.70294676      -4.76732845      -5.77831482
H       -2.18039755      -3.05444229      -5.97117485
H       -3.10549429      -3.52354081      -8.22190602
H       -2.58732918      -5.21421639      -8.08835722
H       -0.12837531      -5.74790337      -8.32260849
H        2.09878143      -4.20643504      -8.81360818
H       -0.29134080      -0.31082418      -8.45644473
H       -0.72460641       2.02902286      -8.43643766
H        0.12479636       4.33631796      -8.73382502
H        4.00882520       2.65466229      -9.48418712
C       -1.78727125       1.78727125       1.78727125
C       -2.28967333       2.99382369       1.31834849
C       -3.12421868       3.75366614       2.14233990
C       -3.46068199       3.26048475       3.39782250
N       -2.94450859       2.11131905       3.87279545
C       -2.12323490       1.39663208       3.06853326
N       -4.39502604       3.97485802       4.15432234
C       -5.14708636       3.52684017       5.20694597
O       -5.90656351       4.31470759       5.77482550
C       -5.05431363       2.07847447       5.61851387
C       -6.24114032       1.62973530       6.45014811
N       -6.09719420       0.21610044       6.76680261
C       -5.49687118      -0.28836756       7.88164583
C       -5.40418437      -1.64124602       7.67869312
C       -5.98758762      -1.87850398       6.40613277
N       -6.42722403      -0.72645245       5.85126307
C       -6.10184064      -3.19534189       5.74201119
O       -5.66420316      -4.19959050       6.28401705
N       -6.72519861      -3.11237295       4.51330548
C       -7.00280211      -4.19874645       3.68090689
C       -7.63887858      -3.94904600       2.46704971
C       -7.94230200      -5.02056735       1.62055511
C       -7.60282330      -6.30861387       2.01055499
Br      -7.99407364      -7.78905307       0.91349502
C       -6.97129175      -6.47335787       3.22831024
N       -6.66951322      -5.44708856       4.05755706
H       -2.05873012       3.33980730       0.31496367
H       -3.54245393       4.68316596       1.77079603
H       -1.75435168       0.47108956       3.50219051
H       -4.62199975       4.91709251       3.86827547
H       -4.12487491       1.94001830       6.18369683
H       -5.03304160       1.45027535       4.72269773
H       -7.18687779       1.75368767       5.91037565
H       -6.31465201       2.18125784       7.39399293
H       -5.16256692       0.34437009       8.69195015
H       -4.96298838      -2.37795690       8.33623030
H       -7.00125222      -2.17749156       4.23484905
H       -7.90337151      -2.94054274       2.16919245
H       -8.43969467      -4.83926803       0.67228405
H       -6.67821763      -7.45274775       3.59522974
C        1.78727125      -1.78727125       1.78727125
C        3.11797766      -2.01867810       1.46518974
C        3.90216273      -2.80008999       2.31797202
C        3.33713864      -3.29336685       3.48848375
N        2.03740571      -3.10584183       3.78537555
C        1.28734155      -2.36178716       2.93927153
N        4.17165758      -3.96546476       4.38708407
C        3.95945392      -4.20280519       5.71861339
O        4.80266507      -4.84148165       6.35194988
C        2.72303044      -3.64741875       6.38085278
C        2.84824316      -3.58146057       7.89132000
N        1.63700970      -2.99572583       8.44736172
C        0.53938671      -3.69010296       8.86065978
C       -0.42522724      -2.74993764       9.11692108
C        0.17953422      -1.49543562       8.84024658
N        1.46108721      -1.65240464       8.43854279
C       -0.48069667      -0.17648949       8.95271711
O       -1.65024789      -0.09966381       9.29921379
N        0.36475044       0.86444031       8.62582101
C        0.02575730       2.21817009       8.67737534
C        0.99423131       3.15098583       8.31363681
C        0.68633384       4.51435098       8.37030690
C       -0.57776025       4.90611149       8.78863616
Br      -1.04413612       6.72829265       8.89094437
C       -1.48351551       3.92021182       9.12997145
N       -1.20153737       2.59739996       9.07891905
H        3.55796038      -1.58255976       0.57298095
H        4.94972017      -2.96063672       2.08605902
H        0.25220172      -2.23212582       3.24330420
H        5.08360016      -4.25855767       4.06520991
H        1.87016563      -4.27734478       6.10107962
H        2.55308528      -2.62589978       6.02702963
H        3.69219547      -2.95562897       8.20311668
H        2.97889638      -4.57361844       8.33738796
H        0.52414234      -4.77017175       8.90457308
H       -1.44225869      -2.92060714       9.44291333
H        1.29879719       0.58656490       8.34637743
H        1.98070555       2.83840938       7.98972505
H        1.43328318       5.25162239       8.09104991
H       -2.48922934       4.15582773       9.46575670
C       -0.00445707       0.01189536      -1.78238275
H       -0.66409135       0.67374010      -2.43557963
H        0.65740317      -0.63156657      -2.45157240
C       -0.90989263      -0.90692880      -0.91072765
C        0.90977584       0.90977584      -0.90977584
C       -0.00465871       1.77757030       0.00794375
H       -0.66225468       2.44313916      -0.64384735
H        0.64322798       2.43503045       0.67728295
C       -1.78241447       0.00034974      -0.00472694
H       -2.45427497      -0.65498947       0.64260836
H       -2.43311707       0.67328779      -0.65473579
C       -0.91132561       0.90220522       0.91563759
C       -0.01476271      -0.02253852       1.78660255
H       -0.67934791      -0.69751639       2.42135241
H        0.63392994       0.61504881       2.47327442
C        0.01484550      -1.77751727      -0.01636693
H        0.67870853      -2.42144646      -0.68295456
H       -0.62264859      -2.45592969       0.64226336
C        1.78714474       0.01002794       0.00389507
H        2.44202412       0.67113390       0.66197326
H        2.45385902      -0.65136977      -0.64189061
C        0.91606151      -0.90478549       0.90901405
