178
Properties=species:S:1:pos:R:3 pbc="F F F"
C        1.79191797       1.79191797      -1.79191797
C        2.84328787       1.22621713      -2.50866482
C        3.64398452       2.03821063      -3.31821224
C        3.41174833       3.41665592      -3.39780566
C        2.35465217       3.96950743      -2.67137123
C        1.53943342       3.15876567      -1.87454751
N        4.28060933       4.16997813      -4.19509599
C        4.36102250       5.53705920      -4.35476972
O        3.61826013       6.37309400      -3.84042744
C        5.61970716       5.95427462      -5.13049602
N        5.89711571       5.14465275      -6.31262650
C        5.03586901       5.26257703      -7.44800857
H        4.39334270       6.09833944      -7.67918210
C        5.06319529       4.02775666      -8.15986333
C        5.76942735       3.21297643      -7.36707752
N        6.25684742       3.70247356      -6.19047362
C        5.97787678       1.78299465      -7.77469896
O        5.59087349       1.35185612      -8.85689562
N        6.58753772       1.06257247      -6.77028785
C        6.87208113      -0.30907138      -6.73798692
C        6.75997655      -1.14580957      -7.85142409
C        7.02798226      -2.51395251      -7.74456493
C        7.40279103      -3.04946841      -6.51603713
Br       7.73445098      -4.90449665      -6.36234676
C        7.53163861      -2.22690413      -5.39937748
C        7.27703766      -0.85665966      -5.51554904
H        3.05126092       0.16259520      -2.44863837
H        4.46347389       1.59072384      -3.87639890
H        2.13495802       5.03103101      -2.72104378
H        0.71633203       3.60990769      -1.32843463
H        4.95833531       3.69397225      -4.80539835
H        6.46663568       5.90662885      -4.43574266
H        5.50646348       7.00583590      -5.42128309
H        4.58766810       3.80325508      -9.09656176
H        6.77757757       1.63789617      -5.95458559
H        6.47422118      -0.75107460      -8.82248136
H        6.93401265      -3.14143830      -8.62580575
H        7.82073116      -2.63683054      -4.43658436
H        7.37202912      -0.22318024      -4.63698051
C       -1.79191797      -1.79191797      -1.79191797
C       -3.05495343      -1.34807089      -2.17514550
C       -3.85556740      -2.15807171      -2.98676829
C       -3.40789984      -3.41890750      -3.39940257
C       -2.13953735      -3.85087792      -3.00511556
C       -1.32747678      -3.03673745      -2.20853236
N       -4.28166844      -4.18928876      -4.17472626
C       -4.15358449      -5.49218333      -4.60708359
O       -3.18310058      -6.22647234      -4.42220865
C       -5.45621839      -6.02692943      -5.22132999
N       -6.11804295      -5.10124943      -6.13510258
C       -5.51315231      -4.83099289      -7.40230942
H       -4.79882636      -5.45585457      -7.91618331
C       -5.90838748      -3.52554816      -7.81687965
C       -6.55987692      -3.03292431      -6.75668007
N       -6.69026928      -3.81395671      -5.64556860
C       -7.09814790      -1.63208488      -6.80533761
O       -7.03378471      -0.94519762      -7.82064291
N       -7.59494582      -1.24651859      -5.57893364
C       -8.10182052       0.00485811      -5.20403424
C       -8.37938663       1.02804358      -6.11424802
C       -8.85377591       2.26653471      -5.67135348
C       -9.04446095       2.48548459      -4.31038338
Br      -9.65530406       4.16997793      -3.70697496
C       -8.78477661       1.47176556      -3.39110091
C       -8.32489580       0.23001388      -3.84104512
H       -3.42832816      -0.38112232      -1.85304401
H       -4.84108438      -1.80590414      -3.28360812
H       -1.75304821      -4.81511236      -3.31887223
H       -0.34043627      -3.38952728      -1.92471080
H       -5.14713189      -3.77019847      -4.54037555
H       -6.12947791      -6.28442915      -4.39510013
H       -5.22544442      -6.96215263      -5.74598543
H       -5.69156234      -3.04374452      -8.75217807
H       -7.50189670      -1.98303547      -4.88512716
H       -8.24375967       0.88016279      -7.18203107
H       -9.06232855       3.04406862      -6.40012018
H       -8.92804389       1.63497694      -2.32741803
H       -8.11684748      -0.55303009      -3.11595184
C       -1.79191797       1.79191797       1.79191797
C       -1.21143232       2.76333619       2.60340132
C       -2.02469973       3.57092178       3.40478588
C       -3.41401228       3.39745234       3.41474529
C       -3.98113642       2.41753812       2.59685629
C       -3.17357530       1.61951933       1.77965196
N       -4.15771160       4.21427571       4.27369615
C       -5.50294771       4.17655808       4.57334563
O       -6.33575252       3.41632894       4.07970011
C       -5.85696181       5.09346948       5.75404651
N       -5.24044095       6.41510876       5.69884524
C       -5.68976324       7.34596024       4.71073114
H       -6.64109410       7.32839252       4.20137761
C       -4.61337945       8.23006268       4.40737314
C       -3.57183776       7.71003872       5.06760482
N       -3.76219367       6.57979538       5.80780554
C       -2.22361185       8.36059872       4.95135982
O       -2.05777762       9.40827919       4.33356842
N       -1.25039344       7.60321563       5.56678897
C        0.13174255       7.83102075       5.60171846
C        0.72788242       9.01999765       5.17347584
C        2.11750789       9.17183247       5.20427010
C        2.91566465       8.12636053       5.65866385
Br       4.79659094       8.31797178       5.67092025
C        2.33641996       6.93941081       6.10112110
C        0.94511144       6.79871772       6.08232076
H       -0.13530961       2.90370886       2.62347602
H       -1.56578626       4.32861912       4.03619127
H       -5.05513659       2.26531358       2.56658264
H       -3.63875945       0.87235347       1.14356143
H       -3.70194935       5.00147301       4.75428355
H       -5.55731488       4.57765348       6.67403882
H       -6.94846886       5.19624021       5.78887341
H       -4.63566267       9.08907161       3.76275066
H       -1.63414318       6.75728253       5.97863362
H        0.12634218       9.85258141       4.81938872
H        2.55474942      10.10664515       4.86648438
H        2.95174636       6.11776353       6.45446782
H        0.50171909       5.86577690       6.42177159
C        1.79191797      -1.79191797       1.79191797
C        1.23931007      -2.45299008       2.88586968
C        2.05099386      -3.26291887       3.68649466
C        3.41711739      -3.39799202       3.41110050
C        3.95701698      -2.72698999       2.31152386
C        3.14565364      -1.93030009       1.49679286
N        4.17297209      -4.19135986       4.28135150
C        5.53590093      -4.39555024       4.32140024
O        6.36244585      -3.93567928       3.53365644
C        5.97027751      -5.14266447       5.59153583
N        5.13160537      -6.28605531       5.93673428
C        5.18148978      -7.45306313       5.11190171
H        5.98625780      -7.73447285       4.45013358
C        3.92520084      -8.12036306       5.20525138
C        3.16241721      -7.27658710       5.91047699
N        3.70766839      -6.10199054       6.34013566
C        1.72766734      -7.62717240       6.18073066
O        1.24735165      -8.70613014       5.84614344
N        1.06287483      -6.57852448       6.77899874
C       -0.29622630      -6.48917194       7.10805102
C       -1.17318595      -7.57606067       7.06271634
C       -2.52686537      -7.41291214       7.37254791
C       -3.00759952      -6.15468809       7.72227118
Br      -4.84382191      -5.92574961       8.11037339
C       -2.14410884      -5.06352820       7.78469259
C       -0.78817761      -5.23560202       7.48850263
H        0.18614692      -2.34918906       3.12715851
H        1.61373610      -3.77748330       4.53937724
H        5.00802477      -2.82076914       2.05823890
H        3.58603261      -1.42804315       0.64059859
H        3.70056722      -4.76174069       4.99539800
H        5.97532931      -4.41868921       6.41498867
H        7.00694621      -5.47336548       5.45327079
H        3.65308784      -9.06412208       4.77027501
H        1.67144984      -5.77734975       6.92125974
H       -0.82135445      -8.56924886       6.79773354
H       -3.18640705      -8.27452172       7.33026544
H       -2.51127531      -4.07795607       8.05380423
H       -0.12270339      -4.37683519       7.53169760
C       -0.00445707       0.01189536      -1.78238275
H       -0.66409135       0.67374010      -2.43557963
H        0.65740317      -0.63156657      -2.45157240
C       -0.90989263      -0.90692880      -0.91072765
C        0.90977584       0.90977584      -0.90977584
C       -0.00465871       1.77757030       0.00794375
H       -0.66225468       2.44313916      -0.64384735
H        0.64322798       2.43503045       0.67728295
C       -1.78241447       0.00034974      -0.00472694
H       -2.45427497      -0.65498947       0.64260836
H       -2.43311707       0.67328779      -0.65473579
C       -0.91132561       0.90220522       0.91563759
C       -0.01476271      -0.02253852       1.78660255
H       -0.67934791      -0.69751639       2.42135241
H        0.63392994       0.61504881       2.47327442
C        0.01484550      -1.77751727      -0.01636693
H        0.67870853      -2.42144646      -0.68295456
H       -0.62264859      -2.45592969       0.64226336
C        1.78714474       0.01002794       0.00389507
H        2.44202412       0.67113390       0.66197326
H        2.45385902      -0.65136977      -0.64189061
C        0.91606151      -0.90478549       0.90901405
