177
Properties=species:S:1:pos:R:3 pbc="F F F"
C        0.00000000       0.00000000       0.00000000
C        0.88134177       0.88134177      -0.88134177
C        0.52252871       2.20582882      -1.11411114
C        1.33591718       3.01176449      -1.91542070
C        2.51642298       2.50462360      -2.47353907
C        2.85964356       1.17087879      -2.24016861
C        2.04118414       0.35833203      -1.44712771
N        3.28808990       3.38760631      -3.24365632
C        4.54094566       3.18677518      -3.78939719
O        5.23202202       2.18048126      -3.68951830
C        4.99723605       4.37038409      -4.54535910
C        6.23003821       4.52112509      -5.22908081
C        6.16154137       5.74849357      -5.84133660
N        4.93197010       6.25687262      -5.53533360
N        4.23379068       5.48162782      -4.67206867
C        4.33961434       7.46532544      -6.09458985
H        4.87250638       7.64394392      -7.03826105
C        2.85488045       7.32726458      -6.42579143
C        4.59019209       8.67421121      -5.21059882
O        5.16449709       9.65662431      -5.68255494
N        4.10048262       8.58297112      -3.91606447
C        4.10142722       9.63197436      -2.97190877
C        4.16078367      10.98120836      -3.33951535
C        4.20726602      11.98519114      -2.36797661
C        4.19350858      11.64106253      -1.02076374
C        4.09763055      10.30452004      -0.63847699
C        4.03375718       9.30196381      -1.61426009
H       -0.38014808       2.62218537      -0.67477028
H        1.04000975       4.04347001      -2.08134227
H        3.75347890       0.72755268      -2.66979749
H        2.32350930      -0.67785504      -1.27837815
H        2.91691312       4.31606984      -3.42437683
H        7.04010986       3.80492062      -5.28033591
H        6.85817547       6.27224731      -6.48310813
H        2.25020768       7.11121660      -5.53855080
H        2.69308893       6.51977512      -7.14793310
H        2.47195874       8.25647606      -6.86220216
H        3.91030389       7.64437607      -3.56738929
H        4.16117630      11.28469328      -4.38278760
H        4.26477475      13.02524596      -2.67894574
H        4.08709805      10.03226410       0.41354916
H        3.97592763       8.26543547      -1.29330154
C        4.28651655      12.67160280      -0.01929669
C        4.36441073      13.53468028       0.81943197
Br       4.49035902      14.93020356       2.17558528
C       -0.88134177      -0.88134177      -0.88134177
C       -2.25993590      -0.69015906      -0.89237370
C       -3.06280159      -1.49403633      -1.70626445
C       -2.49265380      -2.47933909      -2.52259276
C       -1.10882497      -2.66739326      -2.49447273
C       -0.30345198      -1.87115909      -1.67203281
N       -3.36704550      -3.22439003      -3.32791699
C       -3.06077444      -4.15058003      -4.30576356
O       -1.94174640      -4.49239237      -4.66788281
C       -4.28094543      -4.72014420      -4.91188960
C       -4.34639902      -5.68871558      -5.94512952
C       -5.68284237      -5.95814597      -6.11038321
N       -6.34067185      -5.19159033      -5.19191414
N       -5.52165850      -4.35781060      -4.50801807
C       -7.76221867      -5.25942569      -4.87788527
H       -8.08961236      -6.25324141      -5.21185759
C       -8.06918104      -5.15342789      -3.38532753
C       -8.56166281      -4.24150345      -5.67183587
O       -9.48365555      -4.62861881      -6.39140198
N       -8.20051834      -2.91559741      -5.48340245
C       -8.89021797      -1.80337568      -6.01171670
C      -10.23750759      -1.85670823      -6.38729154
C      -10.86697993      -0.74291165      -6.95054219
C      -10.14798919       0.43221426      -7.13955993
C       -8.81633311       0.51295359      -6.73724805
C       -8.19338695      -0.59925123      -6.15734290
H       -2.71862258       0.08137386      -0.27955885
H       -4.13575994      -1.32593517      -1.70312693
H       -0.62423182      -3.43337831      -3.09321894
H        0.77143458      -2.03358850      -1.66187849
H       -4.36575350      -3.07083916      -3.22076713
H       -3.51458481      -6.14061420      -6.47016739
H       -6.20280293      -6.64302836      -6.76769962
H       -7.74021190      -4.19891164      -2.96085153
H       -7.57331645      -5.95708813      -2.83039256
H       -9.14774410      -5.23321553      -3.20967733
H       -7.26914256      -2.74778485      -5.10514183
H      -10.83090317      -2.75527933      -6.24247468
H      -11.91113547      -0.81312491      -7.24470607
H       -8.25156082       1.42973734      -6.88398951
H       -7.14958406      -0.51888421      -5.86619638
C      -10.78260114       1.56584039      -7.76065529
C      -11.31408865       2.51525228      -8.28082267
Br     -12.17345900       4.05037101      -9.12188931
C       -0.88134177       0.88134177       0.88134177
C       -2.06569125       0.37146932       1.40530809
C       -2.86618031       1.17898668       2.21793538
C       -2.48076143       2.49070108       2.52312315
C       -1.29481385       2.99323768       1.98263943
C       -0.49674459       2.19038409       1.15951521
N       -3.32839228       3.22426093       3.36669931
C       -3.12272982       4.47190882       3.92247938
O       -2.13304622       5.18089005       3.78808531
C       -4.27404741       4.89339122       4.74554062
C       -4.40661085       6.10659913       5.46703412
C       -5.67061504       6.07759326       6.00316325
N       -6.23491150       4.90829741       5.58096742
N       -5.37757368       4.12162693       4.88828657
C       -7.62613880       4.51296093       5.76042990
H       -8.17756282       5.44771368       5.92943485
C       -8.23709422       3.83561903       4.53522321
C       -7.81157117       3.66032090       7.00311006
O       -8.60237782       4.02808631       7.87321220
N       -7.08115861       2.48162411       7.03673549
C       -7.20052443       1.48047859       8.02430733
C       -8.34933352       1.32378972       8.80838413
C       -8.40486137       0.34789787       9.80767453
C       -7.30747589      -0.47782262      10.02568158
C       -6.17017677      -0.35892896       9.22937976
C       -6.12414348       0.60826866       8.21756894
H       -2.37208993      -0.64973507       1.19445271
H       -3.78431335       0.76065533       2.61985336
H       -0.96648258       4.01103017       2.17331633
H        0.42178159       2.59954022       0.74627378
H       -4.20968350       2.80223540       3.64544089
H       -3.67482049       6.89987018       5.55067573
H       -6.21254209       6.79381704       6.60717178
H       -7.71986787       2.90629510       4.27381211
H       -8.19582210       4.49976114       3.66521391
H       -9.28680003       3.58258255       4.72125438
H       -6.27191103       2.43087374       6.41928448
H       -9.22813089       1.94433263       8.65619366
H       -9.30421006       0.25373433      10.41102206
H       -5.31072868      -1.00241732       9.39750162
H       -5.22093273       0.69414700       7.61958492
C       -7.34668984      -1.45340149      11.08412769
C       -7.37953152      -2.27044878      11.97057630
Br      -7.43263374      -3.59154516      13.40388873
C        0.88134177      -0.88134177       0.88134177
C        0.65666196      -2.25399092       0.93181579
C        1.47044032      -3.05861383       1.73404822
C        2.51951124      -2.49978346       2.47529095
C        2.72777584      -1.11954153       2.42337360
C        1.90736025      -0.30987688       1.62940675
N        3.30427790      -3.38122382       3.23385080
C        4.46170394      -3.11599200       3.93942208
O        5.03774554      -2.03853444       4.02574160
C        4.97136831      -4.32553212       4.61607881
C        6.13550109      -4.42569349       5.41904952
C        6.14683143      -5.71632984       5.88821028
N        5.02322050      -6.31078996       5.39016586
N        4.33325170      -5.51729984       4.53693563
C        4.52041573      -7.63106086       5.74805304
H        4.96941021      -7.86176091       6.72354023
C        3.00336049      -7.68759196       5.91698400
C        5.00037082      -8.69634487       4.77828644
O        5.63275534      -9.66186742       5.20905358
N        4.64067497      -8.50668119       3.45216205
C        4.86172500      -9.43300685       2.41057849
C        5.03895129     -10.80228486       2.64027122
C        5.30259666     -11.67622246       1.58161465
C        5.38911269     -11.18114507       0.28507709
C        5.17881360      -9.82649502       0.03531895
C        4.89771446      -8.95626844       1.09599818
H       -0.14088437      -2.70806079       0.34963115
H        1.28081730      -4.12775252       1.75625221
H        3.51446416      -0.63862275       2.99774216
H        2.08334041       0.76260472       1.60329672
H        3.02676747      -4.35793176       3.27266055
H        6.84708250      -3.63996720       5.63831670
H        6.82907658      -6.23582235       6.54863199
H        2.47324463      -7.43394444       4.99278601
H        2.67459229      -6.99074655       6.69545831
H        2.68774514      -8.69597980       6.20691203
H        4.37998841      -7.55882234       3.18325850
H        4.96611836     -11.22327786       3.63926096
H        5.44795102     -12.73371388       1.78730155
H        5.24617096      -9.43638586      -0.97674384
H        4.75349195      -7.90113262       0.88004007
C        5.70491360     -12.07299804      -0.80049560
C        5.96939686     -12.81992490      -1.70966273
Br       6.39704392     -14.02764246      -3.17970908
