169
Properties=species:S:1:pos:R:3 pbc="F F F"
C        0.00000000       0.00000000       0.00000000
C        0.88134177       0.88134177      -0.88134177
C        0.52252871       2.20582882      -1.11411114
C        1.33591718       3.01176449      -1.91542070
C        2.51642298       2.50462360      -2.47353907
C        2.85964356       1.17087879      -2.24016861
C        2.04118414       0.35833203      -1.44712771
N        3.28808990       3.38760631      -3.24365632
C        4.54094566       3.18677518      -3.78939719
O        5.23202202       2.18048126      -3.68951830
C        4.99723605       4.37038409      -4.54535910
C        6.23003821       4.52112509      -5.22908081
C        6.16154137       5.74849357      -5.84133660
N        4.93197010       6.25687262      -5.53533360
N        4.23379068       5.48162782      -4.67206867
C        4.33961434       7.46532544      -6.09458985
H        4.87250638       7.64394392      -7.03826105
C        2.85488045       7.32726458      -6.42579143
C        4.59019209       8.67421121      -5.21059882
O        5.16449709       9.65662431      -5.68255494
N        4.10048262       8.58297112      -3.91606447
C        4.10142722       9.63197436      -2.97190877
C        4.16078367      10.98120836      -3.33951535
C        4.20726602      11.98519114      -2.36797661
C        4.19350858      11.64106253      -1.02076374
Br       4.31555816      12.99338755       0.29340999
C        4.09763055      10.30452004      -0.63847699
C        4.03375718       9.30196381      -1.61426009
H       -0.38014808       2.62218537      -0.67477028
H        1.04000975       4.04347001      -2.08134227
H        3.75347890       0.72755268      -2.66979749
H        2.32350930      -0.67785504      -1.27837815
H        2.91691312       4.31606984      -3.42437683
H        7.04010986       3.80492062      -5.28033591
H        6.85817547       6.27224731      -6.48310813
H        2.25020768       7.11121660      -5.53855080
H        2.69308893       6.51977512      -7.14793310
H        2.47195874       8.25647606      -6.86220216
H        3.91030389       7.64437607      -3.56738929
H        4.16117630      11.28469328      -4.38278760
H        4.26477475      13.02524596      -2.67894574
H        4.08709805      10.03226410       0.41354916
H        3.97592763       8.26543547      -1.29330154
C       -0.88134177      -0.88134177      -0.88134177
C       -1.80612010      -0.29549417      -1.74085439
C       -2.60598004      -1.10543162      -2.55169071
C       -2.47529858      -2.49976637      -2.51952070
C       -1.55034509      -3.07518041      -1.64516548
C       -0.75575196      -2.26691865      -0.82397327
N       -3.29811825      -3.23726068      -3.38397359
C       -3.27972994      -4.59374396      -3.64364413
O       -2.51523580      -5.42216259      -3.16462319
C       -4.32717556      -4.97269360      -4.61311008
C       -4.59486368      -6.27192172      -5.11345871
C       -5.70140157      -6.13479312      -5.91517687
N       -6.05650038      -4.81815867      -5.84951727
N       -5.18510283      -4.06536449      -5.13701985
C       -7.26755500      -4.22728073      -6.40469390
H       -7.97424003      -5.06011457      -6.52035676
C       -7.92326053      -3.19340613      -5.49126979
C       -7.02860561      -3.65548814      -7.79090838
O       -7.71027612      -4.05897135      -8.73442887
N       -6.05911854      -2.66693441      -7.87346526
C       -5.76995198      -1.90779858      -9.02755979
C       -6.69258535      -1.72484588     -10.06407613
C       -6.34581964      -1.00410311     -11.21051102
C       -5.07052387      -0.46144276     -11.32336822
Br      -4.58098417       0.46268679     -12.89723833
C       -4.15266622      -0.60337770     -10.28458364
C       -4.50884882      -1.31126797      -9.12986429
H       -1.90907609       0.78519413      -1.79292561
H       -3.31849723      -0.62822523      -3.21809956
H       -1.42928598      -4.15206341      -1.56947969
H       -0.04285873      -2.73287470      -0.14829898
H       -3.99688757      -2.73561760      -3.92485461
H       -4.05661728      -7.18307356      -4.88567557
H       -6.27109561      -6.85752131      -6.48491399
H       -7.26730952      -2.33886846      -5.29379709
H       -8.19039257      -3.64199961      -4.52840497
H       -8.83796889      -2.80224665      -5.95042142
H       -5.38493031      -2.62693875      -7.11020018
H       -7.70067519      -2.12545409     -10.00252789
H       -7.07638922      -0.88582424     -12.00675299
H       -3.15507377      -0.18085408     -10.36988513
H       -3.77175207      -1.42351555      -8.33939702
C       -0.88134177       0.88134177       0.88134177
C       -2.26332163       0.71717475       0.86197229
C       -3.06638495       1.52083865       1.67587876
C       -2.49350076       2.47876581       2.52231908
C       -1.10601202       2.64003247       2.52464647
C       -0.30012631       1.84412451       1.70239307
N       -3.36903051       3.22520020       3.32512181
C       -3.06424616       4.12611488       4.32675699
O       -1.94617423       4.43875880       4.71708855
C       -4.28488969       4.70778864       4.92030091
C       -4.35196093       5.65732084       5.97096234
C       -5.68594599       5.94978208       6.11564348
N       -6.34024081       5.21421908       5.16971643
N       -5.52417429       4.37783482       4.48547806
C       -7.75375022       5.31609704       4.82968237
H       -8.06839976       6.30953200       5.17677960
C       -8.03324244       5.24501898       3.32967503
C       -8.58819343       4.29897275       5.58783595
O       -9.51653129       4.69020213       6.29694292
N       -8.24908804       2.97009759       5.38033259
C       -8.97041756       1.86167939       5.87321339
C      -10.32356226       1.93427578       6.22366933
C      -10.98540604       0.82242206       6.75260568
C      -10.29311303      -0.37007082       6.93229265
Br     -11.17035639      -1.85644419       7.70162352
C       -8.95559869      -0.46923911       6.55426798
C       -8.29998129       0.64147373       6.00852605
H       -2.72466648      -0.03319095       0.22533203
H       -4.14212037       1.37399760       1.64870406
H       -0.61860060       3.38461386       3.14761461
H        0.77768886       1.98551476       1.71620652
H       -4.36821390       3.09345057       3.19569532
H       -3.52207612       6.08251956       6.52077072
H       -6.20542633       6.63194829       6.77615629
H       -7.71447609       4.29258584       2.89291314
H       -7.51111047       6.04932564       2.80036103
H       -9.10639360       5.34941532       3.13482804
H       -7.31385744       2.79130947       5.01690234
H      -10.89652099       2.84699125       6.08514493
H      -12.03360229       0.90749417       7.02787000
H       -8.41164209      -1.39963365       6.69380455
H       -7.25239314       0.54620039       5.73607111
C        0.88134177      -0.88134177       0.88134177
C        0.30198371      -1.87331917       1.66716579
C        1.11288724      -2.68318291       2.46703222
C        2.50379463      -2.51701114       2.47377989
C        3.07140112      -1.51121064       1.68807921
C        2.26070758      -0.69143634       0.89449996
N        3.24599518      -3.38856391       3.28479343
C        4.61751026      -3.52582983       3.37377793
O        5.45983193      -2.90530145       2.73688821
C        4.99463025      -4.55432935       4.36401964
C        6.30743829      -4.96263740       4.71016842
C        6.15160886      -5.87552846       5.72423423
N        4.80878153      -5.95940013       5.95599467
N        4.07020302      -5.23520573       5.08207842
C        4.17029424      -6.67746036       7.05177504
H        4.94546951      -6.78709149       7.82215036
C        3.00041222      -5.92481027       7.68271396
C        3.75692999      -8.07903503       6.63903711
O        4.18783324      -9.04463984       7.27120326
N        2.86927803      -8.15438494       5.57585524
C        2.25230840      -9.33734810       5.11565385
C        2.08958432     -10.46944862       5.92247443
C        1.51498031     -11.63594854       5.40950492
C        1.09906750     -11.67312246       4.08314489
Br       0.37618961     -13.26754197       3.37180414
C        1.22048549     -10.54281200       3.27733008
C        1.78072976      -9.37012155       3.79912978
H       -0.77359544      -2.02918044       1.66122257
H        0.64129865      -3.45387241       3.06965097
H        4.14252663      -1.33053273       1.67776972
H        2.72028631       0.08749403       0.29124014
H        2.73935629      -4.03560162       3.88240188
H        7.23609640      -4.60566838       4.28360161
H        6.87305064      -6.43190161       6.30857866
H        2.19145193      -5.74081264       6.96771051
H        3.32969413      -4.95647209       8.07463092
H        2.57664229      -6.50183766       8.51215702
H        2.81540442      -7.33649061       4.97017422
H        2.39288971     -10.46996863       6.96579884
H        1.41014844     -12.50576181       6.05305620
H        0.89680737     -10.56876387       2.24024174
H        1.88070414      -8.50593594       3.14802457
