165
Properties=species:S:1:pos:R:3 pbc="F F F"
C        0.00000000       0.00000000       0.00000000
C        0.88137292       0.88137292      -0.88137292
C        2.10541216       1.33377752      -0.40098094
C        2.91407201       2.12690496      -1.21846051
C        2.50788257       2.47473726      -2.51620999
C        1.27074562       2.02569697      -2.97836416
C        0.45954214       1.22578680      -2.16349346
N        3.40614929       3.26109084      -3.26394000
C        3.28252444       3.74791746      -4.54758841
O        2.30224451       3.52587283      -5.25306469
C        4.39070491       4.57353388      -5.04257411
N        4.45534393       4.99103671      -6.36214279
C        3.59617627       4.60114373      -7.46143047
N        5.47445156       5.83038414      -6.62430793
C        6.13680302       5.89414258      -5.47655097
C        5.53256904       5.13668269      -4.44711385
C        6.02679144       4.95747585      -3.08497352
O        5.73252394       3.94572093      -2.45718584
N        6.79602665       5.99486419      -2.59077709
C        7.40191068       6.05927328      -1.31424900
C        7.39809119       5.00839219      -0.39026888
C        8.00416330       5.15256819       0.86277386
C        8.62568344       6.35004685       1.19690170
C        8.65297785       7.40198514       0.28561898
C        8.04462307       7.25462771      -0.96648056
H        2.44295615       1.07542975       0.59894100
H        3.87006484       2.47027676      -0.82750192
H        0.90786496       2.27011350      -3.97134762
H       -0.49607189       0.87599777      -2.54503998
H        4.28672691       3.44480262      -2.79208876
H        2.62547776       5.08439043      -7.33233964
H        3.50792078       3.51191553      -7.47130672
H        4.04722469       4.92464851      -8.40418805
H        7.04666483       6.48001368      -5.44720971
H        6.87862156       6.82614303      -3.16084381
H        6.93690605       4.05005153      -0.60430224
H        7.98039204       4.32199153       1.56385747
H        9.14021307       8.33956352       0.53962398
H        8.07756236       8.09357294      -1.65704791
C        9.24182011       6.49995655       2.48976778
C        9.75783456       6.62550592       3.57254312
Br      10.59218630       6.82850863       5.32329927
C       -0.88137292      -0.88137292      -0.88137292
C       -0.36824684      -1.41209813      -2.05982564
C       -1.17511181      -2.23062242      -2.85370325
C       -2.49598126      -2.52313715      -2.47971141
C       -3.00114817      -1.97118324      -1.30247535
C       -2.19336140      -1.15432384      -0.50113717
N       -3.21665016      -3.37423799      -3.34029198
C       -4.51260496      -3.83161996      -3.23380539
O       -5.24772565      -3.53864719      -2.29480919
C       -4.99307634      -4.69196378      -4.32177279
N       -6.21785007      -5.33627597      -4.25439740
C       -7.12423746      -5.40792221      -3.12659080
N       -6.55546273      -5.99510531      -5.37857560
C       -5.49493836      -5.85014834      -6.16240987
C       -4.47902602      -5.06032864      -5.57701092
C       -3.17346280      -4.74575366      -6.15002435
O       -2.22638939      -4.49793171      -5.41110962
N       -3.11901708      -4.73098077      -7.53167008
C       -1.97795880      -4.47126057      -8.32621359
C       -0.68808479      -4.29582857      -7.81283889
C        0.39091392      -4.02358142      -8.66129013
C        0.18633540      -3.93213448     -10.03302951
C       -1.08680963      -4.11826976     -10.56426462
C       -2.16405956      -4.38926297      -9.71240881
H        0.65205417      -1.20250998      -2.36898910
H       -0.75672402      -2.63962216      -3.77149733
H       -4.01656304      -2.16192969      -0.97083336
H       -2.60084371      -0.74248004       0.41835789
H       -2.67210497      -3.73187957      -4.11963375
H       -7.60389891      -4.43464926      -3.00365966
H       -6.55861510      -5.69564987      -2.23687805
H       -7.88304666      -6.17154760      -3.32146698
H       -5.50345740      -6.34543370      -7.12499712
H       -3.99006183      -4.84213020      -8.03341636
H       -0.47166902      -4.36739391      -6.75219689
H        1.38125426      -3.88508941      -8.23469095
H       -1.25263918      -4.05133895     -11.63617448
H       -3.14798596      -4.52630820     -10.15388906
C        1.29603343      -3.64379060     -10.90425169
C        2.22540552      -3.40230261     -11.63390027
Br       3.72812160      -3.01183695     -12.81368032
C       -0.88137292       0.88137292       0.88137292
C       -2.19555284       1.13827762       0.50634016
C       -3.00139049       1.93267332       1.32537367
C       -2.50298828       2.47617763       2.51966391
C       -1.17824942       2.22180071       2.87475662
C       -0.36880275       1.42129965       2.05872000
N       -3.40393638       3.24583969       3.28140406
C       -3.20267065       3.89443223       4.48092744
O       -2.13264110       3.86581045       5.08273048
C       -4.34268253       4.64977977       5.01435060
N       -4.31498046       5.21405371       6.27948927
C       -3.30188241       5.05428314       7.30258492
N       -5.39377691       5.96443767       6.57092905
C       -6.17850787       5.81767169       5.51131701
C       -5.60149959       5.01092439       4.50394160
C       -6.21404509       4.61659611       3.23859961
O       -5.86906771       3.57403196       2.69233105
N       -7.15146200       5.49802511       2.73218083
C       -7.89439012       5.34243548       1.53860736
C       -7.86316551       4.19429798       0.73928876
C       -8.61337838       4.12024017      -0.43966091
C       -9.40712826       5.19484830      -0.82314797
C       -9.46301185       6.33997341      -0.03364126
C       -8.71026387       6.41102322       1.14444424
H       -2.60498954       0.72639491      -0.41193954
H       -4.02827738       2.12158563       1.01798051
H       -0.74287419       2.62182204       3.78462986
H        0.65747270       1.22487815       2.35756041
H       -4.34583266       3.27553841       2.90224720
H       -2.41612515       5.61996076       7.00612192
H       -3.08230822       3.99005118       7.41878363
H       -3.68467998       5.43878972       8.25259154
H       -7.15025131       6.29448505       5.52915186
H       -7.27197971       6.37827762       3.21535106
H       -7.26940666       3.32395787       0.99789529
H       -8.56508119       3.21854923      -1.04510433
H      -10.08427064       7.18220093      -0.32631897
H       -8.76974885       7.31871831       1.73971606
C      -10.17224648       5.12056206      -2.04079967
C      -10.81303300       5.05834733      -3.06058297
Br     -11.84913059       4.95775137      -4.70948631
C        0.88137292      -0.88137292       0.88137292
C        0.37525391      -1.39417653       2.07074017
C        1.18185801      -2.21283621       2.86474326
C        2.49552236      -2.52330535       2.48000210
C        2.99391948      -1.98917795       1.29170933
C        2.18629679      -1.17225169       0.49027392
N        3.21630671      -3.37291895       3.34195448
C        4.50616947      -3.84515622       3.22670463
O        5.23430298      -3.56991949       2.27695957
C        4.98910472      -4.69906330       4.31864488
N        6.20624289      -5.35704100       4.24523954
C        7.09977767      -5.45019161       3.10878119
N        6.54884166      -6.00755538       5.37274659
C        5.49829981      -5.84308310       6.16611366
C        4.48458731      -5.04870671       5.58307156
C        3.18857675      -4.71424781       6.16641625
O        2.23635766      -4.46415658       5.43491648
N        3.14898984      -4.68435489       7.54832319
C        2.01924496      -4.40416284       8.35202516
C        0.72590089      -4.22043301       7.85041836
C       -0.34108608      -3.92780815       8.70723557
C       -0.12097611      -3.82410940      10.07569529
C        1.15571819      -4.01817538      10.59545044
C        2.22093356      -4.30956366       9.73523412
H       -0.63943811      -1.17050432       2.38837869
H        0.76897516      -2.60767933       3.79118903
H        4.00368511      -2.19419519       0.95144580
H        2.58828723      -0.77446673      -0.43778810
H        2.67634836      -3.71652494       4.13074498
H        7.58832191      -4.48342395       2.97046196
H        6.52172587      -5.74123494       2.22818222
H        7.85253735      -6.21975215       3.30377175
H        5.51184427      -6.32827190       7.13377204
H        4.02410447      -4.79947647       8.04202745
H        0.49747353      -4.30085199       6.79293429
H       -1.33439577      -3.78328709       8.28963478
H        1.33363607      -3.94173368      11.66478286
H        3.20800355      -4.45241324      10.16776642
C       -1.21824731      -3.51482338      10.95543279
C       -2.13721194      -3.25579635      11.69221295
Br      -3.62310002      -2.83697153      12.88352415
