158
Properties=species:S:1:pos:R:3 pbc="F F F"
C        1.79140812       1.79140812      -1.79140812
C        2.79172947       2.56905201      -1.21529148
C        3.59502567       3.37161929      -2.02909206
C        3.40385977       3.40163097      -3.41379758
C        2.39746740       2.61766667      -3.98196304
C        1.59044147       1.81237748      -3.17034890
O        4.25932870       4.22686961      -4.09086461
C        4.07917669       4.31929277      -5.49944676
C        5.07192122       5.33026428      -6.00987318
S        6.70077059       4.75835350      -6.44895284
C        7.03814139       6.38244957      -6.84915682
N        8.03923363       7.05595560      -7.33090437
N        7.59561581       8.37080035      -7.40741847
C        6.33778034       8.44175615      -6.96777281
C        5.52922746       9.65805265      -6.88392629
C        4.23447737       9.69541328      -6.36748592
N        3.47187184      10.81556711      -6.27694922
C        4.02642334      11.96630200      -6.72051282
C        5.30273332      12.04211425      -7.24966741
C        6.06033965      10.87633675      -7.33237127
N        5.95909000       7.16566074      -6.61701156
N        4.81134931       6.60518044      -6.14198561
H        2.95500068       2.55966986      -0.14107229
H        4.37572865       3.97982221      -1.57704557
H        2.20841500       2.60458742      -5.04986924
H        0.80989526       1.20676068      -3.62342359
H        3.07332119       4.68341871      -5.73857506
H        4.26080175       3.35086159      -5.97986968
H        3.73383455       8.80977417      -5.98766301
H        3.39310163      12.84422008      -6.63136918
H        7.06762513      10.91294079      -7.74404999
C        5.83822357      13.29922960      -7.70410243
C        6.28669664      14.35206371      -8.08469176
Br       7.01183968      16.05440742      -8.70007252
C       -1.79140812      -1.79140812      -1.79140812
C       -1.64758240      -3.17529299      -1.75319757
C       -2.45921271      -3.97481669      -2.56170763
C       -3.41223841      -3.39944441      -3.40760551
C       -3.54862333      -2.00995488      -3.43851890
C       -2.73750188      -1.20535664      -2.63030933
O       -4.13984147      -4.29555433      -4.14166711
C       -5.09730218      -3.75532876      -5.04528528
C       -5.71227131      -4.91291005      -5.78687731
S       -7.13006603      -5.71354064      -5.06447026
C       -7.10287566      -6.73826263      -6.42860949
N       -7.80863970      -7.72592741      -6.89152649
N       -7.20167445      -8.08226674      -8.08989345
C       -6.14824568      -7.29245853      -8.30660509
C       -5.24859187      -7.36467408      -9.45794044
C       -4.12643070      -6.55257720      -9.61836867
N       -3.27774247      -6.60950600     -10.67713971
C       -3.55534609      -7.52750009     -11.63039198
C       -4.64084573      -8.38352573     -11.57014352
C       -5.49538932      -8.30016948     -10.47348886
N       -6.07914108      -6.41135592      -7.25126530
N       -5.26164501      -5.37059854      -6.92627180
H       -0.91201890      -3.64083860      -1.10288533
H       -2.34468760      -5.05635662      -2.53155223
H       -4.27235236      -1.51420460      -4.07631470
H       -2.85207596      -0.12502957      -2.66297399
H       -4.61174133      -3.10315704      -5.78041659
H       -5.87848114      -3.20867520      -4.50437668
H       -3.84253057      -5.80145936      -8.88728180
H       -2.85657297      -7.55047916     -12.46163876
H       -6.35496014      -8.96489343     -10.40476233
C       -4.88220549      -9.34182622     -12.61752389
C       -5.08434429     -10.14440287     -13.49470496
Br      -5.41118563     -11.44210144     -14.91303255
C       -1.79140812       1.79140812       1.79140812
C       -1.42523483       2.03976338       3.11107474
C       -2.23648269       2.84876635       3.91048798
C       -3.41057993       3.40974298       3.39896541
C       -3.76906088       3.15441476       2.07362147
C       -2.95930133       2.34444994       1.26941657
O       -4.10878271       4.18169624       4.28658397
C       -5.33089711       4.74422366       3.82279546
C       -5.95058643       5.47973222       4.98174003
S       -5.48817628       7.18056928       5.23933137
C       -6.54633866       7.14588505       6.57752407
N       -6.96468542       7.97923097       7.48217722
N       -7.85055840       7.25359935       8.26967688
C       -7.93457464       6.00435004       7.80838461
C       -8.75668018       4.93664891       8.37787731
C       -8.77388108       3.62864544       7.89485005
N       -9.52609166       2.62414737       8.41414915
C      -10.30348688       2.93325863       9.47649264
C      -10.36118523       4.19766020      10.03566955
C       -9.58054454       5.20846243       9.48004069
N       -7.11009091       5.92255738       6.70911401
N       -6.80214936       4.94084024       5.81552576
H       -0.51693869       1.61207229       3.52673185
H       -1.94945861       3.04093092       4.94220690
H       -4.66874847       3.56543178       1.62869141
H       -3.24844014       2.15213224       0.23950715
H       -6.02689120       3.95654428       3.51187947
H       -5.14983008       5.44347615       2.99822679
H       -8.16831506       3.31212774       7.05082893
H      -10.88981596       2.10824105       9.87063389
H       -9.60925815       6.21056060       9.90479715
C      -11.20867161       4.46385296      11.16903103
C      -11.91844146       4.68678939      12.11822128
Br     -13.06607926       5.04725874      13.65298162
C        1.79140812      -1.79140812       1.79140812
C        2.43378205      -1.24406233       2.89822858
C        3.23726612      -2.05784781       3.70062309
C        3.40250905      -3.41390614       3.40287313
C        2.75365326      -3.95333378       2.29011007
C        1.94795373      -3.14161302       1.48360109
O        4.21247459      -4.09463061       4.26995771
C        4.44088683      -5.47037347       3.98665592
C        5.40986947      -5.98270980       5.01947941
S        4.75004818      -6.60574666       6.55228210
C        6.37062129      -6.90281029       6.99631620
N        7.00133726      -7.41432769       8.01042865
N        8.34905837      -7.34685879       7.67791748
C        8.48175724      -6.79544571       6.47010634
C        9.74682731      -6.54492695       5.77945213
C        9.84244656      -5.91673244       4.53819757
N       11.00779665      -5.67123186       3.88535967
C       12.14473951      -6.06798440       4.50051424
C       12.16407897      -6.69817090       5.73226512
C       10.95314267      -6.93910092       6.37680407
N        7.21434632      -6.51611744       6.01129854
N        6.70815596      -5.98952540       4.86083401
H        2.31819916      -0.19225668       3.14528699
H        3.73967871      -1.62816956       4.56474817
H        2.84844129      -4.99842565       2.01600472
H        1.44818595      -3.57211950       0.61977408
H        4.90351112      -5.59146931       3.00033452
H        3.50641212      -6.04050549       4.04461541
H        8.96997954      -5.56679576       3.99449644
H       13.05934564      -5.85442249       3.95492277
H       10.94482399      -7.43241117       7.34738074
C       13.40912514      -7.09557373       6.33685674
C       14.45185130      -7.42839859       6.84320223
Br      16.13785132      -7.96654825       7.66192005
C       -0.00445707       0.01189536      -1.78238275
H       -0.66409135       0.67374010      -2.43557963
H        0.65740317      -0.63156657      -2.45157240
C       -0.90989263      -0.90692880      -0.91072765
C        0.90977584       0.90977584      -0.90977584
C       -0.00465871       1.77757030       0.00794375
H       -0.66225468       2.44313916      -0.64384735
H        0.64322798       2.43503045       0.67728295
C       -1.78241447       0.00034974      -0.00472694
H       -2.45427497      -0.65498947       0.64260836
H       -2.43311707       0.67328779      -0.65473579
C       -0.91132561       0.90220522       0.91563759
C       -0.01476271      -0.02253852       1.78660255
H       -0.67934791      -0.69751639       2.42135241
H        0.63392994       0.61504881       2.47327442
C        0.01484550      -1.77751727      -0.01636693
H        0.67870853      -2.42144646      -0.68295456
H       -0.62264859      -2.45592969       0.64226336
C        1.78714474       0.01002794       0.00389507
H        2.44202412       0.67113390       0.66197326
H        2.45385902      -0.65136977      -0.64189061
C        0.91606151      -0.90478549       0.90901405
