150
Properties=species:S:1:pos:R:3 pbc="F F F"
C        1.79140812       1.79140812      -1.79140812
C        2.79172947       2.56905201      -1.21529148
C        3.59502567       3.37161929      -2.02909206
C        3.40385977       3.40163097      -3.41379758
C        2.39746740       2.61766667      -3.98196304
C        1.59044147       1.81237748      -3.17034890
O        4.25932870       4.22686961      -4.09086461
C        4.07917669       4.31929277      -5.49944676
C        5.07192122       5.33026428      -6.00987318
S        6.70077059       4.75835350      -6.44895284
C        7.03814139       6.38244957      -6.84915682
N        8.03923363       7.05595560      -7.33090437
N        7.59561581       8.37080035      -7.40741847
C        6.33778034       8.44175615      -6.96777281
C        5.52922746       9.65805265      -6.88392629
C        4.23447737       9.69541328      -6.36748592
N        3.47187184      10.81556711      -6.27694922
C        4.02642334      11.96630200      -6.72051282
C        5.30273332      12.04211425      -7.24966741
Br       6.00370918      13.68772316      -7.84453909
C        6.06033965      10.87633675      -7.33237127
N        5.95909000       7.16566074      -6.61701156
N        4.81134931       6.60518044      -6.14198561
H        2.95500068       2.55966986      -0.14107229
H        4.37572865       3.97982221      -1.57704557
H        2.20841500       2.60458742      -5.04986924
H        0.80989526       1.20676068      -3.62342359
H        3.07332119       4.68341871      -5.73857506
H        4.26080175       3.35086159      -5.97986968
H        3.73383455       8.80977417      -5.98766301
H        3.39310163      12.84422008      -6.63136918
H        7.06762513      10.91294079      -7.74404999
C       -1.79140812      -1.79140812      -1.79140812
C       -2.36557382      -2.94507814      -1.26542100
C       -3.17221416      -3.74530473      -2.07821813
C       -3.40737447      -3.39953126      -3.41238259
C       -2.82662579      -2.23998810      -3.93048322
C       -2.01781579      -1.43561558      -3.11973647
O       -4.21576326      -4.26769885      -4.09360080
C       -4.45411019      -3.97757331      -5.46623272
C       -5.29678126      -5.09715526      -6.01812216
S       -7.06745993      -4.96054284      -5.88007416
C       -7.13046542      -6.47440906      -6.66487329
N       -8.04912811      -7.29074220      -7.08622329
N       -7.36193694      -8.35593248      -7.65596522
C       -6.04866623      -8.14130115      -7.55734192
C       -4.99769432      -9.04144535      -8.03206672
C       -3.63468708      -8.80206413      -7.86062536
N       -2.64613452      -9.62865749      -8.28959616
C       -3.03117805     -10.76026223      -8.92179787
C       -4.35516256     -11.09590357      -9.14344885
Br      -4.80866112     -12.69529775     -10.03201256
C       -5.34712106     -10.22736049      -8.69456612
N       -5.88303454      -6.92572440      -6.93300336
N       -4.80491714      -6.16809412      -6.58550410
H       -2.19382707      -3.23071330      -0.23120246
H       -3.61929851      -4.64743261      -1.66586532
H       -2.97772423      -1.92720534      -4.95794209
H       -1.57059795      -0.53569407      -3.53378750
H       -3.51254781      -3.95573268      -6.02703447
H       -4.98834564      -3.02673339      -5.57645399
H       -3.25837590      -7.91757300      -7.35532283
H       -2.21792479     -11.40146961      -9.24929649
H       -6.39553138     -10.47211143      -8.85697308
C       -1.79140812       1.79140812       1.79140812
C       -1.93399350       1.49765241       3.14442704
C       -2.74110015       2.31019863       3.94443825
C       -3.40613957       3.41304708       3.40010167
C       -3.25647412       3.69918378       2.04143921
C       -2.44900491       2.88771556       1.23644737
O       -4.16020972       4.12349391       4.29335929
C       -4.88594658       5.23386351       3.77810612
C       -5.69060868       5.80620541       4.91524459
S       -4.92211594       7.03447404       5.95148695
C       -6.39379966       7.06126980       6.81467832
N       -6.89344890       7.70808904       7.82455567
N       -8.18347569       7.21389894       7.97646001
C       -8.41529889       6.28386761       7.04814279
C       -9.65615872       5.52536815       6.88967952
C       -9.83707616       4.52314791       5.93715249
N      -10.97931651       3.80554871       5.77952296
C      -12.00024253       4.09558493       6.61741069
C      -11.92735552       5.06888615       7.59827332
Br     -13.39675624       5.41079750       8.72841768
C      -10.74394441       5.79055994       7.73454332
N       -7.27581500       6.18355451       6.28239279
N       -6.91787306       5.44853210       5.19211020
H       -1.42579729       0.64447581       3.58546974
H       -2.85247068       2.07849190       5.00163386
H       -3.74997233       4.54239889       1.57050044
H       -2.34025080       3.11964079       0.18018793
H       -5.58552719       4.91157367       2.99821411
H       -4.20370507       5.99866553       3.38916243
H       -9.05602778       4.23563264       5.23961132
H      -12.89788582       3.50245788       6.46834719
H      -10.66391388       6.56017581       8.50052621
C        1.79140812      -1.79140812       1.79140812
C        1.73632766      -1.66346204       3.17628326
C        2.54497169      -2.47499170       3.97577364
C        3.40774725      -3.41214678       3.39939429
C        3.45551028      -3.53267096       2.00891587
C        2.64722837      -2.72159017       1.20434931
O        4.13994874      -4.14155865       4.29555553
C        5.06009915      -5.08290344       3.75491363
C        5.79568836      -5.70252945       4.91384087
S        5.08035467      -7.13705353       5.69066874
C        6.43271568      -7.10624751       6.73078459
N        6.89255207      -7.81783638       7.71570516
N        8.08006754      -7.20169872       8.09206838
C        8.29371398      -6.13719637       7.31639895
C        9.43407311      -5.22575510       7.41137818
C        9.59092214      -4.09290117       6.61355326
N       10.63946565      -3.23327002       6.69165251
C       11.58556860      -3.51056344       7.61710611
C       11.52799325      -4.60614510       8.46037664
Br      12.88856615      -4.92092252       9.72648275
C       10.44192771      -5.47175404       8.35536591
N        7.24745529      -6.06991434       6.42439267
N        6.92486464      -5.24449298       5.38915774
H        1.07275177      -0.94035892       3.64263215
H        2.50160839      -2.37288041       5.05810763
H        4.10677251      -4.24374218       1.51235696
H        2.69308777      -2.82373627       0.12325548
H        5.79691856      -4.58201444       3.11638195
H        4.53400477      -5.86385553       3.19367273
H        8.86504565      -3.80872250       5.85750358
H       12.40866311      -2.80296069       7.65706709
H       10.37546543      -6.33939383       9.00975663
C       -0.00445707       0.01189536      -1.78238275
H       -0.66409135       0.67374010      -2.43557963
H        0.65740317      -0.63156657      -2.45157240
C       -0.90989263      -0.90692880      -0.91072765
C        0.90977584       0.90977584      -0.90977584
C       -0.00465871       1.77757030       0.00794375
H       -0.66225468       2.44313916      -0.64384735
H        0.64322798       2.43503045       0.67728295
C       -1.78241447       0.00034974      -0.00472694
H       -2.45427497      -0.65498947       0.64260836
H       -2.43311707       0.67328779      -0.65473579
C       -0.91132561       0.90220522       0.91563759
C       -0.01476271      -0.02253852       1.78660255
H       -0.67934791      -0.69751639       2.42135241
H        0.63392994       0.61504881       2.47327442
C        0.01484550      -1.77751727      -0.01636693
H        0.67870853      -2.42144646      -0.68295456
H       -0.62264859      -2.45592969       0.64226336
C        1.78714474       0.01002794       0.00389507
H        2.44202412       0.67113390       0.66197326
H        2.45385902      -0.65136977      -0.64189061
C        0.91606151      -0.90478549       0.90901405
