82
Properties=species:S:1:pos:R:3 pbc="F F F"
C        1.77956595       1.77956595      -1.77956595
N        2.83857207       1.12576663      -2.38744861
C        3.63821916       1.81052325      -3.17023665
N        4.67325255       1.14858182      -3.77354417
C        3.42008182       3.23209767      -3.35863470
N        4.14770203       4.07741388      -4.05991255
C        3.50274363       5.28394967      -3.90276194
C        2.39639153       5.15047404      -3.09233809
Br       1.23125191       6.51551556      -2.60544489
N        2.35643146       3.83073650      -2.73528932
C        1.51620096       3.08965898      -1.93052982
H        4.93078351       0.28307666      -3.31668260
H        5.44630220       1.73829176      -4.06432599
H        3.87340671       6.18154093      -4.38201521
H        0.68789456       3.59591564      -1.45360811
C       -1.77956595      -1.77956595      -1.77956595
N       -3.13915250      -1.53573723      -1.67689758
C       -3.96509085      -2.24402752      -2.40986069
N       -5.30489125      -1.98376077      -2.30672652
C       -3.44761246      -3.28062511      -3.28257662
N       -4.12835258      -4.11474028      -4.04193559
C       -3.15854664      -4.87806326      -4.65284533
C       -1.89961658      -4.49997755      -4.23960954
Br      -0.29587042      -5.25590040      -4.80044154
N       -2.09338405      -3.48064880      -3.34842443
C       -1.24003214      -2.71306955      -2.58328808
H       -5.56805183      -1.51094735      -1.45154358
H       -5.91163113      -2.74579057      -2.59149824
H       -3.42292972      -5.65846682      -5.35556631
H       -0.17746994      -2.89992467      -2.66002370
C       -1.77956595       1.77956595       1.77956595
N       -1.21067413       2.98498302       2.15613016
C       -1.90753379       3.80550010       2.90594516
N       -1.33699632       4.99814669       3.26023553
C       -3.23570963       3.42631015       3.34879441
N       -4.04777389       4.09659206       4.14066250
C       -5.16260172       3.29349627       4.23335725
C       -4.99987573       2.13670606       3.50262187
Br      -6.24515202       0.76504826       3.34201208
N       -3.75313414       2.22261718       2.94670595
C       -3.01161482       1.38162486       2.14315008
H       -0.32700917       5.00653891       3.19699468
H       -1.72828993       5.42905546       4.09157456
H       -6.01963508       3.59422300       4.82310477
H       -3.45165871       0.43914390       1.84661571
C        1.77956595      -1.77956595       1.77956595
N        1.45980774      -3.12715865       1.76482091
C        2.17654027      -3.95443054       2.48800825
N        1.85642645      -5.28477748       2.45417461
C        3.26023677      -3.44439191       3.30618550
N        4.04165356      -4.11680778       4.12656711
C        4.88721183      -3.15999175       4.64225165
C        4.59234115      -1.91420636       4.13265615
Br       5.47238702      -0.33006671       4.54975863
N        3.53646209      -2.10220033       3.28379486
C        2.78272787      -1.25103539       2.50262651
H        0.91103053      -5.47328879       2.14622345
H        2.17200176      -5.82099527       3.25592291
H        5.66047825      -3.42324745       5.35323714
H        3.02862741      -0.19779987       2.51099104
C       -0.00445707       0.01189536      -1.78238275
H       -0.66409135       0.67374010      -2.43557963
H        0.65740317      -0.63156657      -2.45157240
C       -0.90989263      -0.90692880      -0.91072765
C        0.90977584       0.90977584      -0.90977584
C       -0.00465871       1.77757030       0.00794375
H       -0.66225468       2.44313916      -0.64384735
H        0.64322798       2.43503045       0.67728295
C       -1.78241447       0.00034974      -0.00472694
H       -2.45427497      -0.65498947       0.64260836
H       -2.43311707       0.67328779      -0.65473579
C       -0.91132561       0.90220522       0.91563759
C       -0.01476271      -0.02253852       1.78660255
H       -0.67934791      -0.69751639       2.42135241
H        0.63392994       0.61504881       2.47327442
C        0.01484550      -1.77751727      -0.01636693
H        0.67870853      -2.42144646      -0.68295456
H       -0.62264859      -2.45592969       0.64226336
C        1.78714474       0.01002794       0.00389507
H        2.44202412       0.67113390       0.66197326
H        2.45385902      -0.65136977      -0.64189061
C        0.91606151      -0.90478549       0.90901405
