190
Properties=species:S:1:pos:R:3 pbc="F F F"
C        1.79139525       1.79139525      -1.79139525
C        2.59940015       2.76680375      -1.20586763
C        3.41818193       3.56371623      -2.00887170
C        3.43538772       3.36326546      -3.39400700
C        2.59044627       2.41577598      -3.98321113
C        1.77692948       1.61795557      -3.17591378
S        4.49532275       4.36068389      -4.41993815
O        3.95171085       4.37884310      -5.75964745
O        4.77283142       5.59348350      -3.70622774
N        5.92886812       3.48302565      -4.50947525
C        6.78929022       3.40435067      -3.30660205
C        7.58802981       2.12450880      -3.49259042
C        6.59716005       1.21457495      -4.19660288
C        5.90846156       2.15347659      -5.19212516
H        4.89662127       1.79087841      -5.38884176
C        6.62137366       2.19691679      -6.55029851
O        7.44168671       1.33785431      -6.86739258
N        6.21450139       3.24820983      -7.35938704
C        6.69567542       3.51011715      -8.65904189
C        7.23636385       2.51582252      -9.48173996
C        7.75583823       2.83484316     -10.73905825
C        7.74736587       4.15502459     -11.18040164
C        7.18279144       5.14245223     -10.37511403
C        6.63362041       4.82503759      -9.13063099
H        2.59508336       2.91512257      -0.12831125
H        4.03655608       4.33105832      -1.54944022
H        2.55884430       2.28851336      -5.06326137
H        1.13353394       0.86967049      -3.63341223
H        6.19344743       3.33432122      -2.39343506
H        7.44317742       4.27799188      -3.24037854
H        8.46036319       2.30844350      -4.13065401
H        7.93894722       1.71203041      -2.54250998
H        7.08619641       0.34983206      -4.65362814
H        5.86330114       0.83996450      -3.47233834
H        5.67178785       3.98198113      -6.90740323
H        7.25159159       1.47521824      -9.17216161
H        8.17676399       2.05059103     -11.36260276
H        8.18218227       4.40082552     -12.14496632
H        6.20869727       5.61114244      -8.51289503
C        7.19531448       6.51141940     -10.82162502
C        7.20580253       7.65792940     -11.19557797
Br       7.22276082       9.51173911     -11.80022826
C       -1.79139525      -1.79139525      -1.79139525
C       -1.71430687      -1.67774518      -3.18001950
C       -2.50829610      -2.49396711      -3.98850665
C       -3.36118603      -3.43356679      -3.39790735
C       -3.47047790      -3.51403216      -2.00492333
C       -2.67113217      -2.69917967      -1.20048700
S       -4.35812615      -4.49308298      -4.42473567
O       -5.50049982      -4.93392801      -3.65577356
O       -4.52583691      -3.83791009      -5.70879566
N       -3.40109951      -5.85712669      -4.66314282
C       -2.21325312      -5.74626483      -5.54072500
C       -1.28506729      -6.85294407      -5.06711766
C       -1.54755332      -6.88874398      -3.57204058
C       -3.06600543      -6.70754872      -3.48050917
H       -3.31556415      -6.23176460      -2.52901269
C       -3.82080727      -8.04338902      -3.50439267
O       -3.24007728      -9.10743345      -3.29942287
N       -5.18339302      -7.90911088      -3.72959435
C       -6.10924491      -8.97169073      -3.78389882
C       -5.89600551     -10.19633695      -3.14158386
C       -6.81461428     -11.24086122      -3.27426413
C       -7.95128005     -11.07168708      -4.05982496
C       -8.18052472      -9.84318374      -4.67664924
C       -7.28186580      -8.78502624      -4.52239695
H       -1.04306530      -0.95575224      -3.63969964
H       -2.45422472      -2.39304240      -5.06978749
H       -4.16848046      -4.20510193      -1.53703663
H       -2.74396843      -2.77482717      -0.11782105
H       -1.71900029      -4.77893629      -5.42326713
H       -2.49258967      -5.87972878      -6.58922938
H       -1.56322406      -7.80778625      -5.52845038
H       -0.23801527      -6.64817534      -5.30729701
H       -1.17239719      -7.80650376      -3.11075566
H       -1.04380323      -6.04179951      -3.09000124
H       -5.49850719      -6.99978587      -4.06287916
H       -5.02440677     -10.35956018      -2.51500450
H       -6.63025709     -12.18710554      -2.77259515
H       -8.64463169     -11.89841661      -4.18492581
H       -7.47282224      -7.83894100      -5.02097149
C       -9.34422480      -9.67595762      -5.50817648
C      -10.31882361      -9.53590575      -6.20458054
Br     -11.89466747      -9.30945371      -7.33060701
C       -1.79139525       1.79139525       1.79139525
C       -2.62700584       2.74171084       1.20335487
C       -3.44567315       3.53834675       2.00674996
C       -3.43482221       3.36254478       3.39529318
C       -2.56272356       2.44085741       3.98585241
C       -1.74937903       1.64314377       3.17827603
S       -4.49423412       4.35937205       4.42233862
O       -3.92747335       4.41119364       5.75153440
O       -4.80640433       5.57405777       3.69208055
N       -5.90997394       3.45829716       4.55309792
C       -6.78994167       3.34284563       3.36745564
C       -7.56214796       2.05265297       3.59032810
C       -6.54281561       1.17314807       4.29237420
C       -5.85363408       2.14179638       5.25863285
H       -4.83212713       1.80070828       5.44350603
C       -6.54312701       2.19704342       6.62841854
O       -7.34214653       1.32947162       6.97531545
N       -6.14099260       3.26972292       7.41138274
C       -6.60377946       3.54640675       8.71464826
C       -7.11190857       2.55766643       9.56435132
C       -7.61475717       2.89000868      10.82497379
C       -7.62221899       4.21785112      11.24272198
C       -7.08978074       5.20046108      10.41011587
C       -6.55704722       4.87047914       9.16176262
H       -2.64437578       2.87069663       0.12344477
H       -4.08574873       4.28627494       1.54503095
H       -2.50978058       2.33359995       5.06723849
H       -1.08466655       0.91467347       3.63727663
H       -6.20914819       3.26694749       2.44510803
H       -7.46048844       4.20347775       3.29758164
H       -8.42624696       2.23259657       4.24061716
H       -7.92231256       1.61703969       2.65413537
H       -7.00809151       0.30825950       4.77330560
H       -5.81524253       0.79859604       3.56176541
H       -5.61961418       4.00471952       6.93683852
H       -7.11389776       1.51156083       9.27351285
H       -8.01045110       2.10977969      11.46972699
H       -8.04428830       4.47323084      12.21045496
H       -6.15728794       5.65273519       8.52271161
C       -7.11901671       6.57679604      10.83254615
C       -7.14350183       7.72947657      11.18633150
Br      -7.18309220       9.59326349      11.75837249
C        1.79139525      -1.79139525       1.79139525
C        1.72511842      -1.66727219       3.17968092
C        2.51905312      -2.48338938       3.98832736
C        3.36093307      -3.43330064       3.39842646
C        3.45961751      -3.52450365       2.00531223
C        2.66034595      -2.70968834       1.20076454
S        4.35764113      -4.49260000       4.42570366
O        5.49127046      -4.94714068       3.65179025
O        4.53926824      -3.82949134       5.70378308
N        3.39263151      -5.84798102       4.68075649
C        2.21195539      -5.72230296       5.56598459
C        1.27249927      -6.82562884       5.10700092
C        1.52395431      -6.87400100       3.61038256
C        3.04296439      -6.70439909       3.50669984
H        3.28906160      -6.23723575       2.55004409
C        3.78835260      -8.04543308       3.53480328
O        3.19857280      -9.10670749       3.34165331
N        5.15344890      -7.91936038       3.74928898
C        6.07205020      -8.98816179       3.80462246
C        5.84544631     -10.21580047       3.17267954
C        6.75749806     -11.26593499       3.30630658
C        7.90096888     -11.09933723       4.08248598
C        8.14342130      -9.86813901       4.68879739
C        7.25126053      -8.80466973       4.53335872
H        1.06237998      -0.93719962       3.63893757
H        2.47348891      -2.37435317       5.06921254
H        4.14927749      -4.22390592       1.53743561
H        2.72484476      -2.79359361       0.11817828
H        1.72379563      -4.75230596       5.44510212
H        2.49787093      -5.85027748       6.61339941
H        1.54713855      -7.77912711       5.57319503
H        0.22869333      -6.61161744       5.35317684
H        1.13893827      -7.79230980       3.15840854
H        1.02281317      -6.02691903       3.12587178
H        5.47744443      -7.00996850       4.07375928
H        4.96821577     -10.37721941       2.55353626
H        6.56277689     -12.21438885       2.81279205
H        8.58927703     -11.93012095       4.20857612
H        7.45255721      -7.85644457       5.02373296
C        9.31424199      -9.70335526       5.51076165
C       10.29480431      -9.56534888       6.19915671
Br      11.88029065      -9.34220422       7.31223332
C       -0.00445707       0.01189536      -1.78238275
H       -0.66409135       0.67374010      -2.43557963
H        0.65740317      -0.63156657      -2.45157240
C       -0.90989263      -0.90692880      -0.91072765
C        0.90977584       0.90977584      -0.90977584
C       -0.00465871       1.77757030       0.00794375
H       -0.66225468       2.44313916      -0.64384735
H        0.64322798       2.43503045       0.67728295
C       -1.78241447       0.00034974      -0.00472694
H       -2.45427497      -0.65498947       0.64260836
H       -2.43311707       0.67328779      -0.65473579
C       -0.91132561       0.90220522       0.91563759
C       -0.01476271      -0.02253852       1.78660255
H       -0.67934791      -0.69751639       2.42135241
H        0.63392994       0.61504881       2.47327442
C        0.01484550      -1.77751727      -0.01636693
H        0.67870853      -2.42144646      -0.68295456
H       -0.62264859      -2.45592969       0.64226336
C        1.78714474       0.01002794       0.00389507
H        2.44202412       0.67113390       0.66197326
H        2.45385902      -0.65136977      -0.64189061
C        0.91606151      -0.90478549       0.90901405
