169
Properties=species:S:1:pos:R:3 pbc="F F F"
C        0.00000000       0.00000000       0.00000000
C        0.88149123       0.88149123      -0.88149123
C        1.68949613       1.85689973      -0.29596361
C        2.50827790       2.65381221      -1.09896768
C        2.52548369       2.45336143      -2.48410297
C        1.68054225       1.50587195      -3.07330711
C        0.86702545       0.70805154      -2.26600976
S        3.58541873       3.45077987      -3.51003413
O        3.04180682       3.46893907      -4.84974343
O        3.86292739       4.68357947      -2.79632371
N        5.01896409       2.57312162      -3.59957123
C        5.87938620       2.49444664      -2.39669803
C        6.67812578       1.21460478      -2.58268639
C        5.68725603       0.30467092      -3.28669885
C        4.99855754       1.24357257      -4.28222114
H        3.98671725       0.88097439      -4.47893773
C        5.71146964       1.28701277      -5.64039449
O        6.53178268       0.42795029      -5.95748856
N        5.30459736       2.33830581      -6.44948302
C        5.78577140       2.60021313      -7.74913786
C        6.32645983       1.60591849      -8.57183593
C        6.84593420       1.92493913      -9.82915423
C        6.83746184       3.24512056     -10.27049762
C        6.27288741       4.23254820      -9.46521001
C        5.72371639       3.91513357      -8.22072696
H        1.68517933       2.00521855       0.78159278
H        3.12665205       3.42115430      -0.63953619
H        1.64894027       1.37860933      -4.15335735
H        0.22362992      -0.04023354      -2.72350820
H        5.28354340       2.42441719      -1.48353104
H        6.53327339       3.36808785      -2.33047451
H        7.55045916       1.39853947      -3.22074998
H        7.02904320       0.80212639      -1.63260596
H        6.17629238      -0.56007197      -3.74372412
H        4.95339712      -0.06993952      -2.56243432
H        4.76188383       3.07207711      -5.99749921
H        6.34168757       0.56531422      -8.26225758
H        7.26685997       1.14068700     -10.45269874
H        7.27227824       3.49092149     -11.23506230
H        5.29879325       4.70123841      -7.60299101
C        6.28541045       5.60151537      -9.91172099
C        6.29589850       6.74802538     -10.28567394
Br       6.31285679       8.60183509     -10.89032424
C       -0.88149123      -0.88149123      -0.88149123
C       -1.48272384      -0.34087261      -2.01876301
C       -2.27675052      -1.14925326      -2.83505401
C       -2.44663192      -2.50122884      -2.51508734
C       -1.88025996      -3.02993029      -1.34953106
C       -1.08317496      -2.21906411      -0.53884768
S       -3.43870529      -3.54189891      -3.56562852
O       -3.91776650      -4.65949319      -2.78322963
O       -4.35782757      -2.68883603      -4.29616698
N       -2.34070175      -4.18126471      -4.66969048
C       -1.77547411      -3.28802928      -5.70702749
C       -0.45342229      -3.93463366      -6.08736100
C        0.01759238      -4.52573847      -4.77047971
C       -1.26953428      -5.09213004      -4.16268692
H       -1.18629345      -5.08716354      -3.07317238
C       -1.51987662      -6.55076921      -4.56823106
O       -0.62457797      -7.24047806      -5.05216548
N       -2.80648953      -6.99204863      -4.29384803
C       -3.29504002      -8.29010138      -4.54998099
C       -2.46178244      -9.41120765      -4.63122416
C       -2.98527585     -10.66765304      -4.94709867
C       -4.34765199     -10.81126098      -5.19416704
C       -5.18388183      -9.70173182      -5.08503198
C       -4.67134515      -8.44929213      -4.73893963
H       -1.34152081       0.70695337      -2.27423766
H       -2.75358437      -0.72056300      -3.71319518
H       -2.04933290      -4.06639582      -1.06517823
H       -0.62893473      -2.63547980       0.35750995
H       -1.59252235      -2.28518623      -5.31378306
H       -2.44818607      -3.21771720      -6.56593249
H       -0.61517791      -4.72702808      -6.82754263
H        0.25611563      -3.21487419      -6.50501699
H        0.81377027      -5.26190023      -4.91181458
H        0.41010995      -3.72733779      -4.12866407
H       -3.49145442      -6.27342457      -4.06658116
H       -1.39619040      -9.33637323      -4.43669574
H       -2.32254126     -11.52655843      -5.01114601
H       -4.74282085     -11.78443674      -5.47100445
H       -5.33816599      -7.59443962      -4.67041706
C       -6.58932241      -9.84571416      -5.36361025
C       -7.76637890      -9.96629938      -5.59691955
Br      -9.66957969     -10.16127548      -5.97416095
C       -0.88149123       0.88149123       0.88149123
C       -1.06437628       2.22522603       0.55275716
C       -1.88274544       3.02950352       1.34880883
C       -2.52854250       2.47466280       2.45974279
C       -2.30738162       1.13873784       2.81360185
C       -1.49204303       0.33706299       2.01198074
S       -3.59190294       3.49002237       3.46430741
O       -3.67211694       2.90446268       4.78390971
O       -3.19023817       4.87239606       3.28019635
N       -5.11602772       3.30001075       2.77561848
C       -5.38377867       3.92625590       1.46049631
C       -6.51125121       3.09769939       0.86646636
C       -6.20088033       1.70153713       1.37620835
C       -5.75447881       1.94927570       2.82059673
H       -5.06197588       1.16044438       3.12420911
C       -6.92286715       1.90174549       3.81426425
O       -8.00539596       1.40958190       3.50224366
N       -6.61153292       2.41598183       5.06487143
C       -7.49378627       2.47781443       6.16352168
C       -8.58198152       1.61078161       6.31145112
C       -9.46380306       1.74981391       7.38641060
C       -9.26932186       2.76522300       8.31853516
C       -8.16960115       3.61151885       8.18952562
C       -7.26695006       3.45795589       7.13467096
H       -0.57196942       2.65402690      -0.31719122
H       -2.01216373       4.07910132       1.09607749
H       -2.76382768       0.71256055       3.70451872
H       -1.33482033      -0.70587883       2.27796308
H       -4.50880966       3.87453604       0.80814593
H       -5.67726314       4.97231737       1.58225525
H       -7.47945599       3.43988198       1.25041065
H       -6.53649359       3.15272637      -0.22544442
H       -7.05631730       1.02776651       1.27586072
H       -5.37024700       1.27594051       0.79970440
H       -5.74845887       2.95270361       5.13029765
H       -8.75856820       0.80321276       5.60747841
H      -10.30679936       1.07075248       7.48269387
H       -9.97693960       2.88786053       9.13346190
H       -6.42238410       4.13533340       7.04530517
C       -7.98175438       4.67641679       9.14047566
C       -7.82443270       5.56826882       9.93689631
Br      -7.57005686       7.01031811      11.22464115
C        0.88149123      -0.88149123       0.88149123
C        0.82607009      -0.74700224       2.26928713
C        1.61995229      -1.56301342       3.07809208
C        2.45078237      -2.52312564       2.48904009
C        2.53880945      -2.62496336       1.09594850
C        1.73961082      -1.81018645       0.29128949
S        3.44726371      -3.58220389       3.51676512
O        4.57203835      -4.05037729       2.73807369
O        3.64278476      -2.91132237       4.78872346
N        2.47447283      -4.92876889       3.78841523
C        1.30110871      -4.78830998       4.68111218
C        0.35054022      -5.88810623       4.23677050
C        0.59089229      -5.94894998       2.73878353
C        2.11028921      -5.79100191       2.62306012
H        2.35283550      -5.33244893       1.66134493
C        2.84628145      -7.13711860       2.65547684
O        2.24757975      -8.19548111       2.47416066
N        4.21374654      -7.01932438       2.85931527
C        5.12507912      -8.09427193       2.91577133
C        4.88519840      -9.32472565       2.29429020
C        5.79067697     -10.38040212       2.42894848
C        6.94084960     -10.21648966       3.19574076
C        7.19641938      -8.98277309       3.79145315
C        6.31076924      -7.91406084       3.63474684
H        0.17186725      -0.00893494       2.72800291
H        1.58292812      -1.44595053       4.15846390
H        3.22008921      -3.33261667       0.62820107
H        1.79573555      -1.90226776      -0.79109873
H        0.81902069      -3.81571949       4.55675146
H        1.59361749      -4.91086421       5.72735405
H        0.62171554      -6.84020426       4.70782881
H       -0.68991923      -5.66485670       4.48883808
H        0.19610472      -6.86766938       2.29617043
H        0.09233659      -5.10176717       2.25178815
H        4.54653772      -6.10999224       3.17493018
H        4.00241681      -9.48425164       1.68259091
H        5.58566138     -11.33092742       1.94365690
H        7.62410554     -11.05127388       3.32288261
H        6.52233580      -6.96383381       4.11685305
C        8.37425627      -8.82054454       4.60384602
C        9.36069466      -8.68467812       5.28422504
Br      10.95568212      -8.46499363       6.38434037
