77
Properties=species:S:1:pos:R:3 pbc="F F F"
C        0.00000000       0.00000000       0.00000000
C        0.88171901       0.88171901      -0.88171901
C        0.43024526       2.14172654      -1.27092352
C        1.23632380       2.94873191      -2.07903218
C        2.50027239       2.50237917      -2.48801696
C        2.93274814       1.22530921      -2.10505184
C        2.12785639       0.41732256      -1.29799937
C        3.35230305       3.31620171      -3.34016578
N        3.82303777       2.79389185      -4.53885034
C        4.55986869       3.68155226      -5.15857744
N        5.13141604       3.45302869      -6.35079343
S        4.77860887       5.16934618      -4.33228842
C        3.80302780       4.59063692      -3.06354472
Br       3.48176636       5.59765715      -1.51508570
H       -0.54666006       2.50168484      -0.95894947
H        0.86151937       3.91975052      -2.39481801
H        3.89980921       0.85402261      -2.43923512
H        2.47945287      -0.56899237      -1.00733347
H        5.93323909       4.00958913      -6.61897941
H        5.16812256       2.48445857      -6.64788218
C       -0.88171901      -0.88171901      -0.88171901
C       -2.17689667      -0.47196243      -1.19403621
C       -2.98487928      -1.27920013      -2.00000848
C       -2.49433627      -2.49073228      -2.50559996
C       -1.19691264      -2.89906546      -2.16713109
C       -0.38847269      -2.09363602      -1.36106960
C       -3.31886442      -3.35546142      -3.33434470
N       -3.51583463      -4.67937258      -2.96057276
C       -4.29026831      -5.28189925      -3.82783083
N       -4.66204530      -6.56549508      -3.70769777
S       -4.78904579      -4.32751431      -5.16368336
C       -3.92151448      -3.00934601      -4.52634895
Br      -3.81219805      -1.36393816      -5.41837299
H       -2.56935551       0.46639228      -0.81101102
H       -4.00151659      -0.95850647      -2.21606484
H       -0.81304080      -3.85119850      -2.52882764
H        0.61625876      -2.42338769      -1.11066502
H       -4.96218468      -7.06316346      -4.53645950
H       -4.13167797      -7.12197729      -3.04680806
C       -0.88171901       0.88171901       0.88171901
C       -2.13751790       0.42595033       1.27942708
C       -2.94556021       1.23308707       2.08544061
C       -2.49360402       2.49131731       2.50574719
C       -1.23676416       2.94443798       2.08190705
C       -0.42836246       2.13912266       1.27569319
C       -3.31998295       3.35616182       3.33252576
N       -3.60235063       4.64807409       2.90535524
C       -4.36347724       5.25577662       3.78074452
N       -4.80581525       6.51194164       3.61748127
S       -4.74721777       4.34782468       5.18520101
C       -3.84544217       3.04255275       4.56921452
Br      -3.60885675       1.45218539       5.53346706
H       -2.49964262      -0.54874416       0.96307579
H       -3.93275098       0.87478641       2.36855051
H       -0.88494723       3.93136794       2.37675178
H        0.54481797       2.50412297       0.95848896
H       -5.09034066       7.03615155       4.43531543
H       -4.33737981       7.05903815       2.90404535
C        0.88171901      -0.88171901       0.88171901
C        0.62571211      -2.24917750       0.96800570
C        1.43164268      -3.05654561       1.77589960
C        2.50265504      -2.49994140       2.48807208
C        2.73597065      -1.12023847       2.40690007
C        1.93082866      -0.31193366       1.60041599
C        3.34727807      -3.31501726       3.34637520
N        3.50865486      -2.96545655       4.68166854
C        4.29352673      -3.82561440       5.28085726
N        4.61032367      -3.74287968       6.58203481
S        4.92610331      -5.07045458       4.28368558
C        4.07451805      -4.42227340       2.96041799
Br       4.20790693      -5.14920529       1.23739698
H       -0.19984321      -2.69466562       0.41915185
H        1.20578526      -4.11776735       1.85253528
H        3.54622859      -0.66966828       2.97717008
H        2.12721891       0.75549369       1.54606874
H        5.45072637      -4.20414539       6.90693587
H        4.41066609      -2.85703574       7.03276148
