149
Properties=species:S:1:pos:R:3 pbc="F F F"
C        0.00000000       0.00000000       0.00000000
C        0.88179411       0.88179411      -0.88179411
C        2.13382361       1.28693826      -0.42185979
C        2.93921501       2.09500269      -1.22834501
C        2.49394993       2.49436198      -2.49396954
C        1.23441085       2.08273403      -2.94506237
C        0.42751873       1.27553977      -2.13938041
C        3.32291535       3.35187181      -3.32604534
C        3.33972032       4.70420561      -3.33310129
N        4.30774260       5.06132475      -4.24886055
C        4.89959348       6.16347798      -4.76872593
C        5.85517445       5.64929781      -5.64009697
N        5.83930121       4.25286619      -5.64489267
C        4.88658982       3.95120096      -4.80785624
N        4.26158137       2.87201374      -4.26505896
C        4.76936408       1.53486230      -4.42765271
C        6.77700952       6.42968643      -6.45762965
C        7.66894551       5.76809927      -7.31588729
C        8.56604392       6.48497069      -8.11312634
C        8.58361038       7.87683752      -8.06233115
C        7.70261692       8.54242686      -7.21401729
C        6.80383793       7.83093986      -6.41552867
H        2.49070969       0.98233494       0.55844169
H        3.91523426       2.41012044      -0.86557768
H        0.87733582       2.38788158      -3.92645544
H       -0.54842633       0.96248852      -2.50107936
H        2.77422250       5.41780484      -2.76111373
H        4.61136041       7.16390213      -4.48597288
H        3.94950990       0.80952870      -4.46401601
H        5.42595228       1.26919711      -3.59235398
H        5.33927139       1.42715630      -5.35758737
H        7.66825708       4.67998556      -7.36816411
H        9.24891632       5.95418957      -8.77159758
H        9.28300117       8.43008067      -8.68364872
H        6.13123933       8.38023400      -5.76479458
C        7.71766058       9.98126231      -7.15810436
C        7.73025965      11.18628699      -7.11127728
Br       7.75063128      13.13470999      -7.03556185
C       -0.88179411      -0.88179411      -0.88179411
C       -0.31210538      -1.59541024      -1.93510603
C       -1.11964484      -2.40051169      -2.74240619
C       -2.49415652      -2.49383645      -2.49428847
C       -3.05569600      -1.77179090      -1.43472034
C       -2.24967583      -0.96554724      -0.62721584
C       -3.33889765      -3.31574955      -3.34618531
C       -3.96403821      -2.93091586      -4.48207316
N       -4.60638664      -4.05647413      -4.95506713
C       -5.37363163      -4.46335067      -5.99481509
C       -5.58038776      -5.81711449      -5.74706698
N       -4.94451963      -6.22131075      -4.57122969
C       -4.38900947      -5.12839738      -4.12824016
N       -3.62305992      -4.67639433      -3.09919982
C       -2.99072071      -5.57345435      -2.16770403
C       -6.34975884      -6.73286444      -6.58170232
C       -6.49643759      -8.07121661      -6.18527786
C       -7.22688415      -8.97581275      -6.96144405
C       -7.82169704      -8.55315555      -8.14792647
C       -7.68192242      -7.22734869      -8.54978997
C       -6.95341672      -6.31917005      -7.77771969
H        0.75392386      -1.53175048      -2.13677633
H       -0.67168373      -2.95507217      -3.56417648
H       -4.12294498      -1.83563478      -1.23309307
H       -2.69767587      -0.40994108       0.19247540
H       -3.98355089      -1.98206466      -4.98752551
H       -5.68482593      -3.79444664      -6.78196284
H       -2.93009126      -5.12072525      -1.17223809
H       -1.97473245      -5.81562899      -2.49714194
H       -3.54873710      -6.51104914      -2.06422883
H       -6.03805727      -8.41833844      -5.26001104
H       -7.32913750     -10.00831865      -6.63724732
H       -8.38837510      -9.25996662      -8.74838883
H       -6.86312038      -5.29331697      -8.11983055
C       -8.29488911      -6.78625388      -9.77588426
C       -8.80824871      -6.41683698     -10.80273823
Br      -9.63830777      -5.81952109     -12.46307425
C       -0.88179411       0.88179411       0.88179411
C       -0.50449366       1.13929241       2.19883558
C       -1.31250949       1.94462204       3.00543118
C       -2.49426742       2.49382974       2.49418429
C       -2.86404187       2.22749717       1.17066821
C       -2.05763248       1.42160266       0.36320377
C       -3.34625048       3.31577033       3.33881169
C       -4.34926735       2.88857379       4.13918609
N       -4.83302822       4.01756483       4.76733485
C       -5.76182210       4.38906621       5.68090908
C       -5.57659327       5.76276287       5.80521309
N       -4.54744507       6.21372757       4.97588743
C       -4.14586275       5.13401594       4.36576833
N       -3.23156986       4.71859747       3.44848675
C       -2.16740238       5.57335818       2.99111854
C       -6.33242851       6.65338922       6.67850788
C       -6.05087074       8.02836400       6.67369733
C       -6.75576286       8.91023604       7.49814205
C       -7.75408842       8.42758936       8.34110129
C       -8.04085046       7.06508504       8.35312557
C       -7.33977684       6.17954205       7.53098757
H        0.41126440       0.71936635       2.60650100
H       -1.01538689       2.14244928       4.03309622
H       -3.78090379       2.64794558       0.76282347
H       -2.35564136       1.22234946      -0.66284927
H       -4.72997354       1.89995014       4.32321738
H       -6.43388767       3.68347089       6.14387686
H       -1.91805762       5.35851264       1.94648435
H       -1.26728030       5.42351592       3.59670716
H       -2.44441312       6.63226215       3.04733981
H       -5.27349128       8.42263630       6.02027917
H       -6.52298642       9.97188919       7.47982787
H       -8.29931409       9.11678948       8.98062699
H       -7.58746420       5.12358422       7.56521949
C       -9.07189462       6.56180299       9.22332965
C       -9.93539410       6.14030427       9.95212556
Br     -11.33159972       5.45877649      11.13052691
C        0.88179411      -0.88179411       0.88179411
C        2.03792750      -1.45269695       0.35199720
C        2.84318372      -2.26063533       1.15874367
C        2.49391395      -2.49435628       2.49401122
C        1.33004114      -1.91708267       3.01508343
C        0.52329981      -1.10977975       2.20935935
C        3.32056507      -3.35130971       3.32895772
C        3.21331303      -4.69191903       3.47179517
N        4.23231900      -5.05962810       4.32598081
C        4.76983275      -6.16359150       4.89837313
C        5.85229379      -5.67106266       5.62121278
N        5.96573642      -4.28577487       5.48554879
C        4.96478487      -3.96729699       4.71356515
N        4.38998079      -2.88482687       4.12384642
C        5.03269968      -1.59692146       4.10225796
C        6.77656580      -6.46239944       6.42536036
C        7.80823438      -5.81859889       7.12609880
C        8.71179469      -6.54637559       7.90597067
C        8.59577638      -7.93155255       7.99545014
C        7.57558840      -8.57951291       7.30395977
C        6.66974028      -7.85701413       6.52355206
H        2.31991073      -1.27756511      -0.68287290
H        3.74408348      -2.70536634       0.74148256
H        1.04793150      -2.09263381       4.05110753
H       -0.37782545      -0.66720170       2.62576529
H        2.52928942      -5.39402682       3.02982483
H        4.36340906      -7.15133086       4.74649549
H        4.29112705      -0.79179563       4.14013193
H        5.62269654      -1.47744762       3.18735921
H        5.70162648      -1.46244410       4.95994448
H        7.91313143      -4.73588240       7.06739292
H        9.50402387      -6.02931391       8.44136569
H        9.30070218      -8.49337132       8.60265706
H        5.88676793      -8.39274470       5.99675526
C        7.45222311     -10.01142982       7.39337432
C        7.34890468     -11.21066023       7.46825901
Br       7.18184751     -13.14971438       7.58934122
