170
Properties=species:S:1:pos:R:3 pbc="F F F"
C        1.79169813       1.79169813      -1.79169813
C        3.04372763       2.19684228      -1.33176381
C        3.84911904       3.00490672      -2.13824903
C        3.40385395       3.40426600      -3.40387357
C        2.14431488       2.99263805      -3.85496639
C        1.33742275       2.18544379      -3.04928444
C        4.23281938       4.26177584      -4.23594936
C        4.24962435       5.61410964      -4.24300532
N        5.21764663       5.97122878      -5.15876458
C        5.80949750       7.07338200      -5.67862995
C        6.76507847       6.55920183      -6.55000100
N        6.74920524       5.16277022      -6.55479669
C        5.79649385       4.86110498      -5.71776026
N        5.17148540       3.78191776      -5.17496298
C        5.67926811       2.44476633      -5.33755674
C        7.68691355       7.33959045      -7.36753367
C        8.57884954       6.67800329      -8.22579131
C        9.47594795       7.39487471      -9.02303036
C        9.49351441       8.78674155      -8.97223518
C        8.61252094       9.45233089      -8.12392132
C        7.71374196       8.74084388      -7.32543269
H        3.40061371       1.89223897      -0.35146234
H        4.82513828       3.32002447      -1.77548171
H        1.78723984       3.29778560      -4.83635947
H        0.36147769       1.87239255      -3.41098338
H        3.68412653       6.32770886      -3.67101775
H        5.52126444       8.07380615      -5.39587690
H        4.85941392       1.71943273      -5.37392003
H        6.33585631       2.17910113      -4.50225801
H        6.24917542       2.33706033      -6.26749139
H        8.57816110       5.58988958      -8.27806813
H       10.15882035       6.86409359      -9.68150160
H       10.19290519       9.33998469      -9.59355274
H        7.04114335       9.29013802      -6.67469860
C        8.62756461      10.89116633      -8.06800838
C        8.64016368      12.09619102      -8.02118130
Br       8.66053531      14.04461401      -7.94546587
C       -1.79169813      -1.79169813      -1.79169813
C       -1.85124664      -3.16445368      -1.55663341
C       -2.65677282      -3.97073176      -2.36477020
C       -3.40374926      -3.40403447      -3.40420979
C       -3.33526786      -2.02462488      -3.63202658
C       -2.52948366      -1.21724018      -2.82542713
C       -4.22693723      -4.24498946      -4.25861788
C       -3.84267417      -4.86843538      -5.39562975
N       -4.94639015      -5.57565089      -5.82559894
C       -5.32751355      -6.41937727      -6.81461863
C       -6.64452788      -6.73527174      -6.49448168
N       -7.05216393      -6.08918815      -5.32542006
C       -6.00534796      -5.39677837      -4.97323277
N       -5.58316845      -4.54225909      -4.00293860
C       -6.34298158      -4.31751452      -2.80109507
C       -7.52014044      -7.62384248      -7.25005475
C       -8.84070052      -7.82336003      -6.81858358
C       -9.70672545      -8.66835503      -7.51877254
C       -9.26246268      -9.32733196      -8.66269650
C       -7.95404567      -9.13591310      -9.09881438
C       -7.08462487      -8.29230472      -8.40308895
H       -1.27670513      -3.61563658      -0.75197331
H       -2.69984505      -5.04178397      -2.17901543
H       -3.91048307      -1.57320780      -4.43769404
H       -2.48493743      -0.14749895      -3.01241724
H       -2.89545282      -4.88310777      -5.90429255
H       -4.66482416      -6.71211541      -7.61400791
H       -6.21632185      -3.28852712      -2.44791771
H       -6.01458008      -4.99601824      -2.00661713
H       -7.41538507      -4.47517719      -2.96316487
H       -9.20448935      -7.31548219      -5.92614727
H      -10.72605811      -8.80973014      -7.16862729
H       -9.93910076      -9.98361750      -9.20372436
H       -6.07100631      -8.16567442      -8.76929925
C       -7.49051659      -9.81550491     -10.28071783
C       -7.10231098     -10.38466305     -11.27056197
Br      -6.47461534     -11.30494362     -12.87105622
C       -1.79169813       1.79169813       1.79169813
C       -1.98687252       1.45514505       3.13031616
C       -2.79503871       2.26130634       3.93592974
C       -3.40426229       3.40382589       3.40390533
C       -3.20241515       3.73143978       2.05806438
C       -2.39538301       2.92577418       1.25099380
C       -4.26174323       4.23257268       4.23622866
C       -5.59251329       4.08623141       4.42799460
N       -5.95211288       5.07302022       5.32250687
C       -7.03714149       5.53531018       5.98905780
C       -6.53433462       6.57693890       6.76300778
N       -5.16157241       6.74014292       6.56505681
C       -4.86507077       5.82649810       5.68379022
N       -3.80348635       5.33466834       4.99021145
C       -2.44943883       5.71461916       5.29753318
C       -7.30329607       7.41231862       7.67842299
C       -6.66093253       8.44969616       8.37201545
C       -7.36754442       9.26917332       9.25713528
C       -8.72962899       9.06141404       9.46144811
C       -9.37597016       8.03479338       8.77800961
C       -8.67469143       7.21324784       7.89207927
H       -1.51826519       0.57121479       3.55483505
H       -2.94593537       1.99486693       4.97984216
H       -3.67172226       4.61635790       1.63330475
H       -2.24637385       3.19093351       0.20754626
H       -6.28583056       3.36728503       4.02973754
H       -8.01869646       5.10431729       5.86793374
H       -1.83411909       5.72710433       4.39154326
H       -2.00359564       5.00802242       6.00559739
H       -2.39889310       6.71698784       5.73784620
H       -5.59623765       8.62618909       8.22369208
H       -6.85202984      10.06754877       9.78483694
H       -9.27493054       9.70072056      10.15079153
H       -9.20826365       6.42170082       7.37601550
C      -10.78393349       7.81626577       8.98654007
C      -11.96310277       7.63324889       9.16118433
Br     -13.86971978       7.33732608       9.44356934
C        1.79169813      -1.79169813       1.79169813
C        1.27091709      -2.33745975       2.96395689
C        2.07866382      -3.14260882       3.77100214
C        3.40410500      -3.40373115       3.40415737
C        3.91696334      -2.84936240       2.22559358
C        3.11080781      -2.04326259       1.41808059
C        4.25177876      -4.22519391       4.25357190
C        5.02716080      -3.80191743       5.27766107
N        5.60554504      -4.93871407       5.80338087
C        6.43592503      -5.32326450       6.80231993
C        6.48530592      -6.70871289       6.68026249
N        5.69324191      -7.15383308       5.61969716
C        5.20086605      -6.05565337       5.11883968
N        4.37720269      -5.62555083       4.12561262
C        3.56741279      -6.53558905       3.35858933
C        7.24760408      -7.61674911       7.52968449
C        7.22329564      -8.99478214       7.26456636
C        7.94195754      -9.89324627       8.05864922
C        8.69626830      -9.42450414       9.13171870
C        8.72678816      -8.05909878       9.40288621
C        8.01082142      -7.15690278       8.61229434
H        0.24308876      -2.14269155       3.25853472
H        1.66910359      -3.56586550       4.68567536
H        4.94598597      -3.04443750       1.93096144
H        3.52072576      -1.61877667       0.50535119
H        5.19032769      -2.81656638       5.67595907
H        6.89083871      -4.61893247       7.48117631
H        3.44550884      -6.17601285       2.33124500
H        2.57343195      -6.63664000       3.80714350
H        4.01940374      -7.53241636       3.30190704
H        6.63880598      -9.37824298       6.42906986
H        7.91047094     -10.95696551       7.83697909
H        9.25314642     -10.12666757       9.74662864
H        8.05539971      -6.09932211       8.85125815
C        9.50500774      -7.57024454      10.51148705
C       10.15676664      -7.16082911      11.43994025
Br      11.21060565      -6.49883899      12.94117055
C       -0.00445707       0.01189536      -1.78238275
H       -0.66409135       0.67374010      -2.43557963
H        0.65740317      -0.63156657      -2.45157240
C       -0.90989263      -0.90692880      -0.91072765
C        0.90977584       0.90977584      -0.90977584
C       -0.00465871       1.77757030       0.00794375
H       -0.66225468       2.44313916      -0.64384735
H        0.64322798       2.43503045       0.67728295
C       -1.78241447       0.00034974      -0.00472694
H       -2.45427497      -0.65498947       0.64260836
H       -2.43311707       0.67328779      -0.65473579
C       -0.91132561       0.90220522       0.91563759
C       -0.01476271      -0.02253852       1.78660255
H       -0.67934791      -0.69751639       2.42135241
H        0.63392994       0.61504881       2.47327442
C        0.01484550      -1.77751727      -0.01636693
H        0.67870853      -2.42144646      -0.68295456
H       -0.62264859      -2.45592969       0.64226336
C        1.78714474       0.01002794       0.00389507
H        2.44202412       0.67113390       0.66197326
H        2.45385902      -0.65136977      -0.64189061
C        0.91606151      -0.90478549       0.90901405
