149
Properties=species:S:1:pos:R:3 pbc="F F F"
C        0.00000000       0.00000000       0.00000000
C        0.88164982       0.88164982      -0.88164982
C        0.85779998       2.26456110      -0.72011869
C        1.66509656       3.07344710      -1.52774145
C        2.50210564       2.50783315      -2.50210291
C        2.50933919       1.11198076      -2.64748119
C        1.70408407       0.30015422      -1.84208028
C        3.35402282       3.32266342      -3.36070673
N        4.17077075       2.77266615      -4.35153877
C        4.74668169       3.81063708      -4.88923790
N        4.37192515       4.98684153      -4.29336869
C        3.47437680       4.70851275      -3.31749328
C        5.03301285       6.05790805      -4.85838458
C        5.82866630       5.53350619      -5.81850696
C        6.74906623       6.26064801      -6.67720905
C        6.32169467       6.73455226      -7.92325974
C        7.19235340       7.46279166      -8.73663744
C        8.49418256       7.72113250      -8.30803058
C        8.91988285       7.24773606      -7.06767791
C        8.05557560       6.52052862      -6.24942145
N        5.63552542       4.13666247      -5.86649530
C        6.39756102       3.14076215      -6.57226680
H        0.21725114       2.72443549       0.02747177
H        1.62338157       4.14868312      -1.37917322
H        3.14844467       0.64594701      -3.39630350
H        1.72912600      -0.77805553      -1.97580812
H        3.02635203       5.47564603      -2.70532996
H        4.90281569       7.07448206      -4.52997912
H        5.30684359       6.53934367      -8.26408525
H        6.85389400       7.83016126      -9.70247277
H        9.16579686       8.29088658      -8.94481655
H        8.39299834       6.15637933      -5.28185732
H        5.89444639       2.16737053      -6.57188869
H        7.38445166       3.01449402      -6.11345353
H        6.54006147       3.43135916      -7.61863307
C       10.26359222       7.51616421      -6.62496867
C       11.38894881       7.74097279      -6.25419968
Br      13.20855524       8.10446925      -5.65469758
C       -0.88164982      -0.88164982      -0.88164982
C       -1.79922536      -0.29431278      -1.74894162
C       -2.60787525      -1.10132345      -2.55708642
C       -2.50627397      -2.50021758      -2.50555016
C       -1.57503652      -3.07006550      -1.62369913
C       -0.76490936      -2.26686820      -0.81454100
C       -3.33520998      -3.36921577      -3.33296723
N       -3.26155336      -4.76277703      -3.27064528
C       -4.15089670      -5.15871095      -4.13694902
N       -4.77238914      -4.11223916      -4.76750706
C       -4.27857570      -2.95375480      -4.26805234
C       -5.67420326      -4.56837471      -5.70672752
C       -5.60766411      -5.91846606      -5.65454928
C       -6.35026544      -6.85758631      -6.47907154
C       -7.58520669      -7.35177432      -6.04252565
C       -8.31773602      -8.22762784      -6.84641864
C       -7.81943422      -8.61321868      -8.09069274
C       -6.58883892      -8.12200711      -8.52445080
C       -5.85203606      -7.24608052      -7.72740909
N       -4.68313345      -6.29726139      -4.65828836
C       -4.13145968      -7.59722251      -4.38190778
H       -1.89549169       0.78653855      -1.80526172
H       -3.31512188      -0.61400051      -3.22211552
H       -1.47550176      -4.15297416      -1.56221926
H       -0.05206547      -2.73434118      -0.14047194
H       -4.61657077      -1.98607537      -4.60468188
H       -6.25975211      -3.91623792      -6.33128684
H       -7.98219269      -7.05402712      -5.07405270
H       -9.27735785      -8.60634213      -6.50282805
H       -8.39594804      -9.29301852      -8.71253343
H       -4.89406075      -6.86442383      -8.07275041
H       -3.58822171      -7.61499216      -3.43049174
H       -3.43868793      -7.89811913      -5.17559216
H       -4.92522478      -8.34902234      -4.31580658
C       -6.07561117      -8.51918895      -9.80992498
C       -5.64578294      -8.85182874     -10.88650961
Br      -4.95078703      -9.38967915     -12.62725589
C       -0.88164982       0.88164982       0.88164982
C       -0.29497617       1.81391952       1.73358408
C       -1.10196727       2.62213597       2.54218188
C       -2.50019675       2.50581267       2.50603228
C       -3.06934830       1.55915049       1.64030236
C       -2.26618118       0.74969171       0.83044567
C       -3.36904852       3.33150553       3.33683892
N       -4.76026478       3.20590660       3.32880429
C       -5.15612092       4.09352713       4.19690863
N       -4.11330407       4.79597705       4.74285424
C       -2.95585921       4.32518870       4.21933492
C       -4.57199254       5.75433887       5.62297407
C       -5.91997371       5.64105868       5.61964707
C       -6.86240269       6.45694914       6.36757145
C       -7.28271775       6.05559203       7.64119688
C       -8.16150784       6.85316711       8.37710754
C       -8.62389620       8.05594301       7.84350643
C       -8.20623881       8.45458522       6.57447280
C       -7.32786873       7.66365868       5.83399826
N       -6.29300023       4.58874818       4.75693478
C       -7.60176172       4.23200381       4.27682445
H        0.78538398       1.92106545       1.77853340
H       -0.61506713       3.33874771       3.19742307
H       -4.15167020       1.44661887       1.59240611
H       -2.73310397       0.02466118       0.16911343
H       -1.99065956       4.71811135       4.49855711
H       -3.92402249       6.43218155       6.15107282
H       -6.92479720       5.11972820       8.06574711
H       -8.48263197       6.53715722       9.36673884
H       -9.30553737       8.67324260       8.42272002
H       -7.00381583       7.98161694       4.84580222
H       -7.60004755       3.25719598       3.77646208
H       -7.96770180       4.97995583       3.56474159
H       -8.31489893       4.16938543       5.10576935
C       -8.68269550       9.69730876       6.02472084
C       -9.08172798      10.73808973       5.56430357
Br      -9.72692975      12.42094452       4.81984779
C        0.88164982      -0.88164982       0.88164982
C        2.25512549      -0.65731194       0.93004233
C        3.06402345      -1.46486273       1.73739893
C        2.50782094      -2.50184602       2.50237475
C        1.12141816      -2.70986522       2.43751776
C        0.30959864      -1.90475937       1.63196056
C        3.32304352      -3.36209919       3.35225027
N        2.78410701      -4.41386629       4.09700237
C        3.81930799      -4.93092134       4.69632735
N        4.98185417      -4.26595370       4.40432749
C        4.69853973      -3.26246982       3.53937329
C        6.04754335      -4.81278364       5.08897848
C        5.53365213      -5.83176721       5.81526012
C        6.25830433      -6.69926773       6.72935123
C        6.80889644      -7.90136108       6.26924915
C        7.53474633      -8.72124762       7.13578854
C        7.71402193      -8.34309711       8.46622661
C        7.16427912      -7.14658848       8.92442922
C        6.43894500      -6.32208548       8.06449519
N        4.15067370      -5.93323616       5.55477334
C        3.15584187      -6.71797503       6.23677308
H        2.70764988       0.13940978       0.34597476
H        4.13188343      -1.26642152       1.75293296
H        0.66287000      -3.50802468       3.01980050
H       -0.76117792      -2.08774187       1.60031463
H        5.45539932      -2.59614956       3.15577913
H        7.05238799      -4.43336051       5.02152836
H        6.67562546      -8.20256148       5.23208557
H        7.96188071      -9.65267118       6.77197614
H        8.28235536      -8.98452533       9.13461931
H        6.01498944      -5.38874365       8.42750189
H        2.20705341      -6.73762899       5.68902321
H        2.96402768      -6.31214198       7.23622955
H        3.48857528      -7.75579075       6.34568767
C        7.35107999      -6.75587976      10.29776535
C        7.50752571      -6.42866121      11.44793436
Br       7.76048521      -5.89957649      13.30766038
