170
Properties=species:S:1:pos:R:3 pbc="F F F"
C        1.79297086       1.79297086      -1.79297086
C        3.06107464       1.32635658      -2.18307607
C        3.88431001       2.11160708      -2.99407787
C        3.40083085       3.34352299      -3.38180013
N        4.03370462       4.27799681      -4.18157881
C        3.25272199       5.41172093      -4.35259744
O        3.57646752       6.39066610      -5.00447993
C        1.92336840       5.19170031      -3.59845399
H        1.12579591       5.09017800      -4.34567997
C        2.14995562       3.82124069      -2.99379446
C        1.32267931       3.04535023      -2.19910909
C        1.62727446       6.32786093      -2.61016131
O        0.48917307       6.01072420      -1.80383460
C        2.88670996       6.70213068      -1.75025023
O        3.49513246       5.96241986      -0.99135109
N        3.14711520       8.05866123      -1.97057158
C        4.23732900       8.78250814      -1.37210230
C        2.23705657       8.61803550      -2.87107484
C        2.17805196       9.91895600      -3.33759154
C        1.15747120      10.24744256      -4.23536686
C        0.22586508       9.27730062      -4.63966655
C        0.29426015       7.96725674      -4.16277776
C        1.31637347       7.64999834      -3.27888889
H        3.41001717       0.35030557      -1.85473579
H        4.86285571       1.75958869      -3.29899280
H        4.95639458       4.18288501      -4.57914093
H        0.34308135       3.40220800      -1.89662784
H        0.33871131       6.76881829      -1.21138126
H        4.80898932       8.13316102      -0.70319651
H        3.84136811       9.62371382      -0.79559337
H        4.90215746       9.15055387      -2.15922207
H        2.89560207      10.67106278      -3.02955513
H        1.09244489      11.26290330      -4.61942830
H       -0.42891491       7.21773370      -4.46943610
C       -0.82036270       9.64180032      -5.55952925
C       -1.69657847       9.94706882      -6.32991427
Br      -3.11334526      10.44066216      -7.57556168
C       -1.79297086      -1.79297086      -1.79297086
C       -3.17063340      -1.52283040      -1.87704349
C       -3.99761434      -2.31125994      -2.68112069
C       -3.40637125      -3.34841140      -3.37137132
N       -4.02294242      -4.24643622      -4.22390161
C       -3.11774111      -5.16604715      -4.73325210
O       -3.39943602      -6.07134377      -5.50083376
C       -1.72097207      -4.81817663      -4.17437401
H       -1.10910539      -4.44626381      -5.00628467
C       -2.04400745      -3.63228125      -3.28870207
C       -1.21475358      -2.84951341      -2.50287163
C       -1.06149879      -6.01975563      -3.48404227
O        0.14458003      -5.62308851      -2.82522338
C       -2.05495379      -6.76275124      -2.52138585
O       -2.61659728      -6.28576142      -1.54654471
N       -2.13156490      -8.09069074      -2.95409238
C       -2.95540381      -9.09750484      -2.33903078
C       -1.33416473      -8.31226834      -4.07973385
C       -1.15792157      -9.48531223      -4.79136571
C       -0.29009421      -9.46253340      -5.88765301
C        0.37803796      -8.27903192      -6.24183829
C        0.19323650      -7.10063084      -5.51690031
C       -0.67694523      -7.13234352      -4.43597194
H       -3.60197537      -0.69791762      -1.31516554
H       -5.06015763      -2.10997117      -2.75130840
H       -5.00799028      -4.26820427      -4.44222596
H       -0.15088299      -3.05489332      -2.43614088
H        0.52610991      -6.42314567      -2.42187510
H       -3.48427648      -8.68645488      -1.47461549
H       -2.32594070      -9.92817532      -2.00655928
H       -3.69145774      -9.45539105      -3.06508462
H       -1.67240170     -10.40105809      -4.52276020
H       -0.13799599     -10.37132557      -6.46545493
H        0.71384226      -6.18652421      -5.78557295
C        1.27222379      -8.28262797      -7.37056269
C        2.02110442      -8.28563966      -8.31586938
Br       3.23198107      -8.29050932      -9.84435033
C       -1.79297086       1.79297086       1.79297086
C       -1.91702861       3.16124226       1.49223642
C       -2.72203701       3.98782823       2.28012972
C       -3.37277165       3.40579091       3.34759141
N       -4.21846355       4.02360882       4.25120787
C       -4.68354412       3.12923597       5.20426026
O       -5.43599578       3.41457217       6.12104561
C       -4.09920535       1.73810041       4.87621695
H       -4.92456388       1.09771066       4.53937933
C       -3.25016273       2.05311081       3.66171723
C       -2.46320025       1.22395688       2.87998150
C       -3.36458072       1.12475408       6.07596189
O       -2.68617210      -0.07461270       5.69217246
C       -2.40902426       2.15867436       6.77139226
O       -1.45980532       2.73156795       6.25753014
N       -2.81173030       2.25732768       8.10729004
C       -2.19314824       3.11988905       9.07890214
C       -3.91199295       1.43899424       8.37517973
C       -4.59098297       1.27452112       9.56909542
C       -5.66600875       0.38054033       9.59373154
C       -6.03187072      -0.32450294       8.43546448
C       -5.33991860      -0.15129035       7.23566640
C       -4.28008753       0.74489566       7.22027750
H       -1.38563865       3.58559152       0.64382836
H       -2.82289263       5.04317342       2.05537116
H       -4.46016868       5.00341703       4.25483480
H       -2.36566979       0.16730264       3.10894476
H       -2.25470344      -0.42680345       6.49101088
H       -1.35192169       3.65900999       8.63441518
H       -1.82573904       2.51896826       9.91596800
H       -2.92821189       3.84695732       9.43676418
H       -4.31327853       1.81743329      10.46550816
H       -6.21812722       0.23693928      10.51970998
H       -5.61750170      -0.70028621       6.34103941
C       -7.13804388      -1.24495591       8.48787890
C       -8.06446391      -2.01583527       8.53177598
Br      -9.56240673      -3.26228199       8.60275383
C        1.79297086      -1.79297086       1.79297086
C        1.70235578      -3.19162314       1.67652836
C        2.50225706      -4.01994533       2.46779258
C        3.36509989      -3.40832244       3.35273165
N        4.24728633      -4.02304181       4.22295210
C        4.95030733      -3.09251725       4.97421578
O        5.78404288      -3.36584539       5.82172529
C        4.50245069      -1.68405804       4.52701398
H        5.34462051      -1.21413942       4.00289394
C        3.45710509      -2.02352621       3.48435947
C        2.67611896      -1.19448066       2.69653901
C        4.02745163      -0.82856268       5.70928238
O        3.45550642       0.39800930       5.24623473
C        3.05951719      -1.62197923       6.65759445
O        1.98328689      -2.11356075       6.35205578
N        3.63245204      -1.61031674       7.93357924
C        3.05592245      -2.24903435       9.08698264
C        4.85253856      -0.92966019       7.94396817
C        5.70928370      -0.71643603       9.00887978
C        6.87942986       0.01191698       8.77276774
C        7.16172704       0.50867096       7.48977617
C        6.29033284       0.28797489       6.42193669
C        5.13614833      -0.44355417       6.66555819
H        1.00738390      -3.63815753       0.96951710
H        2.43846517      -5.09856448       2.38440755
H        4.36361808      -5.01914586       4.33565657
H        2.74393581      -0.11452647       2.78345491
H        3.18890035       0.90425126       6.03426178
H        2.09978812      -2.71417687       8.83138186
H        2.88851179      -1.50287762       9.86928589
H        3.73841719      -3.02304084       9.45047538
H        5.49649432      -1.09897012      10.00075555
H        7.57094406       0.18941890       9.59325132
H        6.50401136       0.67672231       5.43096585
C        8.36969035       1.26204464       7.27332116
C        9.38135961       1.89299509       7.09204009
Br      11.01714325       2.91318860       6.79892393
C       -0.00445707       0.01189536      -1.78238275
H       -0.66409135       0.67374010      -2.43557963
H        0.65740317      -0.63156657      -2.45157240
C       -0.90989263      -0.90692880      -0.91072765
C        0.90977584       0.90977584      -0.90977584
C       -0.00465871       1.77757030       0.00794375
H       -0.66225468       2.44313916      -0.64384735
H        0.64322798       2.43503045       0.67728295
C       -1.78241447       0.00034974      -0.00472694
H       -2.45427497      -0.65498947       0.64260836
H       -2.43311707       0.67328779      -0.65473579
C       -0.91132561       0.90220522       0.91563759
C       -0.01476271      -0.02253852       1.78660255
H       -0.67934791      -0.69751639       2.42135241
H        0.63392994       0.61504881       2.47327442
C        0.01484550      -1.77751727      -0.01636693
H        0.67870853      -2.42144646      -0.68295456
H       -0.62264859      -2.45592969       0.64226336
C        1.78714474       0.01002794       0.00389507
H        2.44202412       0.67113390       0.66197326
H        2.45385902      -0.65136977      -0.64189061
C        0.91606151      -0.90478549       0.90901405
