185
Properties=species:S:1:pos:R:3 pbc="F F F"
C        0.00000000       0.00000000       0.00000000
C        0.88157015       0.88157015      -0.88157015
C        1.95494088       1.56916585      -0.32155406
C        2.75940393       2.37637120      -1.13219485
C        2.50176694       2.49819653      -2.50656338
C        1.41262895       1.80005813      -3.05096889
C        0.60454148       0.99453934      -2.24180403
C        3.36080868       3.33138224      -3.35236240
N        4.11633762       4.31802431      -2.84536246
N        4.71882215       4.86585249      -3.91297314
H        5.30910072       5.68168510      -3.77946818
C        4.47639899       4.21196222      -5.08837011
C        3.54540690       3.24729842      -4.75935371
C        5.06801462       4.62998128      -6.33306434
O        5.41385717       5.79983830      -6.49370382
N        5.20019902       3.68424601      -7.35463337
C        5.60880871       2.29865691      -7.07656033
C        5.17026409       1.35870067      -8.20260010
N        5.70251394       1.80666897      -9.52244581
C        5.31410112       3.22199515      -9.81433900
C        5.64867894       4.18356246      -8.65953620
S        7.31972351       1.38410774      -9.83130831
O        8.16480433       2.44832842      -9.33523164
O        7.52587314       0.01206413      -9.42241285
C        7.56164815       1.39310926     -11.59023054
C        8.43346872       2.09073363     -12.40745199
C        8.26994011       1.75414057     -13.78442069
C        7.27979753       0.81854517     -13.94842759
S        6.54248604       0.35612792     -12.49573947
H        2.17634992       1.48814353       0.73921497
H        3.59640532       2.91010439      -0.68477002
H        1.16684369       1.88313654      -4.10627797
H       -0.23688587       0.46581894      -2.68199495
H        3.06613392       2.56129080      -5.44251189
H        5.21553048       1.93609994      -6.12751564
H        6.70047720       2.30224979      -6.97151325
H        5.47321740       0.32909519      -7.98917399
H        4.07486899       1.34665108      -8.27132045
H        5.77737636       3.56551753     -10.74501183
H        4.23067103       3.22904834      -9.98965773
H        6.72687118       4.36279944      -8.58987932
H        5.17777028       5.15349072      -8.85903190
H        9.15856203       2.79993504     -12.02403124
H        8.85419461       2.17388837     -14.59461404
C        6.89925980       0.27957599     -15.22838979
C        6.58055945      -0.17181070     -16.30035814
Br       6.06524794      -0.90166480     -18.03364030
C       -0.88157015      -0.88157015      -0.88157015
C       -0.43422544      -2.14159324      -1.26984212
C       -1.24423566      -2.94559500      -2.07813932
C       -2.50698176      -2.50032212      -2.49922297
C       -2.93787869      -1.22550293      -2.10027435
C       -2.12833841      -0.41807683      -1.29446961
C       -3.35731496      -3.35654378      -3.33069457
N       -2.85308555      -4.35726152      -4.06937732
N       -3.91481876      -4.87522920      -4.70759981
H       -3.76807712      -5.62381278      -5.37836410
C       -5.11130691      -4.32849272      -4.33693170
C       -4.76877910      -3.29518411      -3.48809582
C       -6.36317784      -4.78297303      -4.88490937
O       -6.39835630      -5.31542488      -5.99361811
N       -7.52857563      -4.56796039      -4.14254237
C       -7.55785582      -4.74388061      -2.68228952
C       -8.71471330      -3.96049390      -2.05635766
N      -10.02328964      -4.35120811      -2.65713096
C      -10.00650976      -4.19831952      -4.14560598
C       -8.79852621      -4.88970178      -4.80354960
S      -10.69811856      -5.78794086      -2.04908015
O      -10.20918527      -6.88845345      -2.85072567
O      -10.55991968      -5.79117232      -0.60925812
C      -12.44657954      -5.74379391      -2.35461450
C      -13.29326301      -6.59110021      -3.04729111
C      -14.64949792      -6.14916904      -3.00983442
C      -14.76862599      -4.98556658      -2.29257772
S      -13.29457753      -4.41462801      -1.68514789
H        0.53816157      -2.50959615      -0.95384390
H       -0.88539665      -3.92938885      -2.37649423
H       -3.90000186      -0.83514992      -2.42110641
H       -2.47852793       0.56789608      -1.00029617
H       -5.44842181      -2.59131621      -3.03019858
H       -6.62134362      -4.44499509      -2.21280735
H       -7.66366671      -5.81873832      -2.49183521
H       -8.72975965      -4.09164373      -0.97008320
H       -8.57435139      -2.88620106      -2.23228807
H      -10.94160399      -4.56430483      -4.58199689
H       -9.96864187      -3.12227716      -4.35845808
H       -8.90806757      -5.97935617      -4.79212620
H       -8.74747081      -4.58670414      -5.85611795
H      -12.94713224      -7.48975350      -3.54564257
H      -15.47881323      -6.66606604      -3.47781775
C      -16.02176055      -4.31029939      -2.07516565
C      -17.07126073      -3.74476311      -1.89308305
Br     -18.76821377      -2.83033878      -1.59867088
C       -0.88157015       0.88157015       0.88157015
C       -0.82969688       0.74934626       2.26661766
C       -1.63945637       1.55797346       3.07054015
C       -2.50125733       2.50675712       2.49851240
C       -2.54167790       2.62173014       1.10024793
C       -1.73513752       1.81197711       0.29377022
C       -3.33274555       3.36303136       3.34877640
N       -3.64772721       3.02351749       4.60847969
N       -4.43723567       4.02002591       5.04038619
H       -4.85042103       3.95384777       5.96598520
C       -4.56634852       5.05417335       4.15620946
C       -3.90746338       4.62170807       3.02288759
C       -5.34202270       6.22889269       4.46014484
O       -6.26394766       6.17051873       5.27293290
N       -5.04247810       7.41459528       3.78200502
C       -3.65461641       7.81949983       3.50990971
C       -3.58766899       8.80426678       2.33962908
N       -4.44330996      10.00116654       2.58715221
C       -5.85593309       9.60834680       2.88615537
C       -5.95815063       8.54188210       3.99174487
S       -3.75570777      11.18626608       3.59316571
O       -4.11142369      10.87623483       4.96070587
O       -2.37617763      11.38021003       3.20396245
C       -4.56327999      12.73014197       3.25156599
C       -5.26668707      13.61139039       4.05357687
C       -5.72903417      14.75041538       3.32905182
C       -5.35717687      14.67936426       2.01022916
S       -4.48696390      13.27720226       1.63018726
H       -0.16813060       0.02426437       2.73288351
H       -1.59168566       1.44691887       4.15267520
H       -3.20971070       3.32962636       0.61692113
H       -1.78473959       1.91341890      -0.78723047
H       -3.83871960       5.14879237       2.08242463
H       -3.00982230       6.96607575       3.30324801
H       -3.26873274       8.27618449       4.42932301
H       -2.55320367       9.09929684       2.13898607
H       -3.94977568       8.31887808       1.42418676
H       -6.45457483      10.48755636       3.14577453
H       -6.28286175       9.20946147       1.95705389
H       -5.73645497       8.96641305       4.97668193
H       -6.98907324       8.17041569       4.03080398
H       -5.42753915      13.44248134       5.11250782
H       -6.29226686      15.56860074       3.76182942
C       -5.67406794      15.69417989       1.03897775
C       -5.93946420      16.54408799       0.22555470
Br      -6.36858752      17.91831749      -1.08968157
C        0.88157015      -0.88157015       0.88157015
C        2.23895397      -1.00805325       0.59865357
C        3.04281639      -1.81724224       1.40791135
C        2.49919728      -2.50035217       2.50697741
C        1.12793335      -2.36281995       2.77290267
C        0.32107504      -1.55662617       1.96318363
C        3.35215414      -3.33144318       3.36095599
N        4.52254029      -3.82721089       2.92997321
N        4.98343893      -4.55258876       3.96162008
H        5.84588990      -5.07696240       3.84740171
C        4.21906492      -4.46635782       5.09130859
C        3.11850797      -3.72747953       4.70607153
C        4.57613891      -5.14413223       6.31078909
O        5.27441548      -6.15665382       6.27632999
N        4.07837125      -4.64301936       7.51768779
C        4.00411231      -3.19778561       7.78212803
C        2.97211318      -2.88936315       8.87008852
N        3.26766742      -3.63708261      10.12687869
C        3.36730845      -5.10866993       9.87445688
C        4.32205213      -5.45289440       8.71683106
S        4.47366248      -2.95198232      11.10949477
O        5.74970706      -3.49760510      10.70105223
O        4.25795655      -1.52340324      11.17899032
C        4.23363581      -3.54596113      12.76539101
C        5.05542464      -4.24224889      13.63398081
C        4.42590025      -4.49284087      14.88976025
C        3.15460988      -3.97727438      14.91488604
S        2.70548444      -3.22117209      13.46769690
H        2.68345366      -0.48652541      -0.24470059
H        4.10318647      -1.90973064       1.17836262
H        0.66387396      -2.89053007       3.60185417
H       -0.73950479      -1.46709499       2.18333782
H        2.25950363      -3.49277412       5.31765885
H        3.76724774      -2.62681451       6.88508381
H        5.00663348      -2.87725701       8.09034975
H        2.91810272      -1.81310589       9.06027797
H        1.97262974      -3.18991533       8.53029545
H        3.66438209      -5.63761033      10.78591330
H        2.35772113      -5.46247693       9.62917904
H        5.36813275      -5.30561924       9.00579796
H        4.20785904      -6.51462132       8.46781254
H        6.06401823      -4.54408782      13.37442226
H        4.89046753      -5.01373353      15.71849596
C        2.28215111      -4.06819493      16.05687954
C        1.55146690      -4.14434090      17.01329910
Br       0.37001232      -4.26746248      18.55974863
