150
Properties=species:S:1:pos:R:3 pbc="F F F"
C        1.79138523       1.79138523      -1.79138523
C        2.81549762       1.21737492      -2.54209020
C        3.62984674       2.02032001      -3.34814440
C        3.42397901       3.40004826      -3.41395351
N        4.21687037       4.26856343      -4.20231360
C        5.37153459       3.95996524      -4.89123084
O        5.93299468       2.87700558      -4.97189013
C        6.05202497       5.12980295      -5.51284614
C        6.33291725       6.21943186      -4.66859299
C        7.14235254       7.26028325      -5.11738388
C        7.70508690       7.21842776      -6.38861718
C        7.44609070       6.13478436      -7.23285471
C        6.59963838       5.09101200      -6.80970772
N        6.26959070       4.06751631      -7.72950832
C        6.94774997       3.67442672      -8.85682428
N        6.21639568       2.81993435      -9.53251626
N        5.05977386       2.67431342      -8.81134937
N        5.07856360       3.42970210      -7.72186722
C        2.37778463       3.95921440      -2.65178704
Cl       2.08093743       5.66705593      -2.67256105
C        1.56699767       3.16326849      -1.84048434
H        2.99136063       0.14418290      -2.51165212
H        4.41054680       1.53290275      -3.92579697
H        3.89867065       5.23159529      -4.21276371
H        5.96369082       6.23302545      -3.64496513
H        8.34396692       8.02919643      -6.73672704
H        7.87828840       6.15997960      -8.23119880
H        7.93838080       4.01166805      -9.11779946
H        0.77201347       3.61228166      -1.25135582
C        7.41620189       8.37600924      -4.24918918
C        7.64555071       9.31042976      -3.52207611
Br       8.01638837      10.82130871      -2.34639578
C       -1.79138523      -1.79138523      -1.79138523
C       -1.41482332      -3.10732993      -2.05280949
C       -2.21580576      -3.91877823      -2.86372715
C       -3.39985253      -3.42368971      -3.41443855
N       -4.24974006      -4.18904909      -4.24895825
C       -4.00744305      -5.44170766      -4.77357995
O       -3.02163755      -6.14676335      -4.61348949
C       -5.04103771      -5.92082833      -5.73280803
C       -5.35922974      -5.06152293      -6.80018943
C       -6.15877582      -5.51430459      -7.84693926
C       -6.62313692      -6.82523625      -7.86375866
C       -6.30269736      -7.69426915      -6.81676326
C       -5.52622010      -7.24288384      -5.73125416
N       -5.31571088      -8.11444490      -4.63645955
C       -5.39109125      -9.48501126      -4.60289846
N       -5.31081468      -9.89796194      -3.36006968
N       -5.17979182      -8.76291633      -2.60272851
N       -5.18818314      -7.67763044      -3.36431934
C       -3.76566243      -2.09171131      -3.13141233
Cl      -5.21235585      -1.40888247      -3.79931609
C       -2.96625938      -1.27581465      -2.32867646
H       -0.49987868      -3.51708542      -1.63023155
H       -1.89245345      -4.94196926      -3.03482380
H       -5.11264843      -3.72286503      -4.50751618
H       -4.94292206      -4.05689463      -6.84186471
H       -7.24250361      -7.18122069      -8.68616609
H       -6.71607531      -8.70020792      -6.85318358
H       -5.48067647     -10.10960186      -5.47756998
H       -3.25787320      -0.24819135      -2.12958639
C       -6.48697610      -4.62417666      -8.93024754
C       -6.76184383      -3.87869452      -9.83751824
Br      -7.20628170      -2.67331295     -11.30449821
C       -1.79138523       1.79138523       1.79138523
C       -1.36104361       3.06866026       2.14525886
C       -2.16202736       3.87955326       2.95673052
C       -3.39940725       3.42284946       3.41572407
N       -4.25290002       4.18926944       4.24557794
C       -3.97443696       5.39703562       4.85125808
O       -2.94540167       6.05351735       4.78297136
C       -5.03315434       5.88171774       5.77980198
C       -5.45525587       4.98634124       6.77934499
C       -6.28688358       5.42709759       7.80603849
C       -6.68161528       6.75915452       7.87136204
C       -6.25789561       7.66302849       6.89280568
C       -5.44703469       7.22699599       5.82632741
N       -5.13012346       8.14204068       4.79445119
C       -5.13106643       9.51453581       4.83339872
N       -4.95996034       9.98739571       3.62149024
N       -4.84702632       8.88837242       2.81003791
N       -4.95512625       7.76655644       3.50845023
C       -3.81867093       2.13012902       3.03998612
Cl      -5.33436396       1.49469154       3.59149892
C       -3.01995273       1.31445695       2.23634082
H       -0.40361759       3.44851779       1.79506027
H       -1.79515675       4.87267195       3.20141781
H       -5.15228021       3.75890730       4.43184214
H       -5.09552799       3.95927453       6.78687888
H       -7.32620091       7.10519873       8.67849076
H       -6.61898589       8.68711629       6.96336463
H       -5.23616851      10.09610754       5.73557225
H       -3.35385225       0.31662773       1.96517098
C       -6.72147846       4.50070663       8.81921522
C       -7.08545167       3.72485419       9.66775073
Br      -7.67396556       2.47036643      11.03976087
C        1.79138523      -1.79138523       1.79138523
C        2.73725122      -1.20657350       2.63113801
C        3.55139196      -2.00907103       3.43784816
C        3.42313455      -3.39954013       3.41530611
N        4.22069227      -4.26754624       4.19950889
C        5.31559672      -3.93647820       4.97065574
O        5.80754802      -2.83075510       5.14358726
C        6.02791272      -5.10129598       5.56546536
C        6.41810604      -6.12260298       4.68023308
C        7.26095168      -7.14164494       5.11742304
C        7.74929233      -7.14311957       6.41971992
C        7.38127473      -6.12656988       7.30588516
C        6.49994641      -5.10815611       6.89225558
N        6.06045097      -4.15989227       7.84627209
C        6.65127109      -3.79649568       9.03123419
N        5.83510266      -3.02457210       9.70917153
N        4.71349990      -2.90111377       8.93082298
N        4.83644701      -3.58939911       7.80428680
C        2.45502335      -3.97010452       2.56365820
Cl       2.25772664      -5.69001543       2.47281234
C        1.64513155      -3.17408052       1.75153842
H        2.85155113      -0.12537079       2.67027373
H        4.26923620      -1.51389469       4.08611562
H        3.95918510      -5.24562990       4.13821464
H        6.10733766      -6.09674251       3.63760123
H        8.41425157      -7.93635184       6.75928699
H        7.75847093      -6.18614329       8.32485259
H        7.64399744      -4.09323737       9.33061349
H        0.91143966      -3.63109472       1.09311657
C        7.64696968      -8.18795504       4.20647558
C        7.97025976      -9.06423975       3.44355708
Br       8.49299247     -10.48111801       2.20998239
C       -0.00445707       0.01189536      -1.78238275
H       -0.66409135       0.67374010      -2.43557963
H        0.65740317      -0.63156657      -2.45157240
C       -0.90989263      -0.90692880      -0.91072765
C        0.90977584       0.90977584      -0.90977584
C       -0.00465871       1.77757030       0.00794375
H       -0.66225468       2.44313916      -0.64384735
H        0.64322798       2.43503045       0.67728295
C       -1.78241447       0.00034974      -0.00472694
H       -2.45427497      -0.65498947       0.64260836
H       -2.43311707       0.67328779      -0.65473579
C       -0.91132561       0.90220522       0.91563759
C       -0.01476271      -0.02253852       1.78660255
H       -0.67934791      -0.69751639       2.42135241
H        0.63392994       0.61504881       2.47327442
C        0.01484550      -1.77751727      -0.01636693
H        0.67870853      -2.42144646      -0.68295456
H       -0.62264859      -2.45592969       0.64226336
C        1.78714474       0.01002794       0.00389507
H        2.44202412       0.67113390       0.66197326
H        2.45385902      -0.65136977      -0.64189061
C        0.91606151      -0.90478549       0.90901405
