121
Properties=species:S:1:pos:R:3 pbc="F F F"
C        0.00000000       0.00000000       0.00000000
C        0.88148120       0.88148120      -0.88148120
C        1.90559359       0.30747090      -1.63218617
C        2.71994272       1.11041598      -2.43824037
C        2.51407499       2.49014424      -2.50404948
N        3.30696634       3.35865941      -3.29240958
C        4.46163056       3.05006121      -3.98132681
O        5.02309065       1.96710155      -4.06198610
C        5.14212095       4.21989893      -4.60294211
C        5.42301323       5.30952783      -3.75868896
C        6.23244851       6.35037923      -4.20747986
Br       6.59176613       7.81432286      -3.06832193
C        6.79518287       6.30852373      -5.47871315
C        6.53618667       5.22488034      -6.32295069
C        5.68973436       4.18110797      -5.89980369
N        5.35968668       3.15761228      -6.81960430
C        6.03784595       2.76452270      -7.94692025
N        5.30649166       1.91003033      -8.62261224
N        4.14986984       1.76440940      -7.90144534
N        4.16865958       2.51979807      -6.81196320
C        1.46788061       3.04931038      -1.74188302
Cl       1.17103341       4.75715191      -1.76265703
C        0.65709365       2.25336446      -0.93058031
H        2.08145660      -0.76572112      -1.60174809
H        3.50064278       0.62299872      -3.01589294
H        2.98876662       4.32169127      -3.30285968
H        5.05378680       5.32312142      -2.73506111
H        7.43406290       7.11929240      -5.82682302
H        6.96838437       5.25007558      -7.32129478
H        7.02847678       3.10176402      -8.20789543
H       -0.13789056       2.70237763      -0.34145179
C       -0.88148120      -0.88148120      -0.88148120
C       -1.76438225      -1.78602310      -0.29484531
C       -2.57142601      -2.60003584      -1.09713723
C       -2.50607223      -2.51276776      -2.48942872
N       -3.28830401      -3.31274050      -3.35699082
C       -4.09983089      -4.37547468      -3.01771301
O       -4.31796899      -4.83015209      -1.90405723
C       -4.68200629      -5.10419523      -4.17876047
C       -3.78005871      -5.54853863      -5.16263268
C       -4.21262246      -6.40789683      -6.16978831
Br      -2.99438251      -6.98734453      -7.49268388
C       -5.52795269      -6.85924529      -6.19522177
C       -6.43134056      -6.43717101      -5.21550614
C       -6.02118634      -5.53871688      -4.21074281
N       -6.98838002      -5.04529089      -3.30323235
C       -8.19970237      -5.59177410      -2.95781242
N       -8.87517725      -4.73485353      -2.22910344
N       -8.06846865      -3.63248799      -2.11476795
N       -6.92704646      -3.80695131      -2.76642307
C       -1.61104263      -1.58592100      -3.06211037
Cl      -1.46617418      -1.44112798      -4.78354019
C       -0.79853453      -0.77649332      -2.26601057
H       -1.83721170      -1.86783072       0.78755885
H       -3.25387547      -3.28472350      -0.60093547
H       -3.19197381      -3.08148392      -4.33985985
H       -2.73000818      -5.26660677      -5.11535437
H       -5.86417632      -7.53707181      -6.97893019
H       -7.45872044      -6.78711819      -5.29391611
H       -8.51922655      -6.58385900      -3.23505068
H       -0.10655380      -0.07515188      -2.72423319
C       -0.88148120       0.88148120       0.88148120
C       -0.62656311       0.97008605       2.24860150
C       -1.43362432       1.77236761       3.06260715
C       -2.49664195       2.49502514       2.51660162
N       -3.35512186       3.31733765       3.28557582
C       -3.40113706       3.43235408       4.65952745
O       -2.70434128       2.86166739       5.48616964
C       -4.51460632       4.27810427       5.17225140
C       -5.80905034       3.95852409       4.72365559
C       -6.91972476       4.56325377       5.30732907
Br      -8.65230863       4.13497784       4.68712446
C       -6.76320464       5.46215937       6.35705575
C       -5.48348609       5.77801201       6.82251960
C       -4.34660834       5.20452402       6.21951366
N       -3.06484447       5.63166132       6.64039747
C       -2.70230586       6.22025189       7.82673114
N       -1.45838666       6.63061065       7.75013691
N       -1.03480509       6.28890776       6.49201174
N       -2.00094292       5.68982775       5.80965018
C       -2.73255079       2.39654941       1.12997380
Cl      -4.04746895       3.25166634       0.39170705
C       -1.93452719       1.59185376       0.31465747
H        0.19937568       0.42105746       2.69580180
H       -1.19537775       1.82255450       4.12160219
H       -4.03060254       3.84217418       2.74054086
H       -5.95490662       3.20153282       3.95552990
H       -7.63247292       5.92953152       6.81817389
H       -5.40563306       6.51232436       7.62179731
H       -3.34913052       6.30325312       8.68575260
H       -2.13717526       1.51915737      -0.75039376
C        0.88148120      -0.88148120       0.88148120
C        0.84937265      -2.26630759       0.72957042
C        1.65117375      -3.07989523       1.53753010
C        2.49357371      -2.51635780       2.49833720
N        3.32264742      -3.28299516       3.35239275
C        3.34007213      -4.65467478       3.49827168
O        2.65715302      -5.48241971       2.91260558
C        4.23134739      -5.14974155       4.58387305
C        4.04872601      -4.58376725       5.85873677
C        4.69496902      -5.13053358       6.96480499
Br       4.45145928      -4.35329401       8.66965764
C        5.49945207      -6.25662866       6.82633902
C        5.67829643      -6.83800067       5.56772060
C        5.06245813      -6.27640037       4.43178753
N        5.35504107      -6.82239338       3.15946882
C        5.82473927      -8.07486271       2.84968691
N        6.14004112      -8.12217568       1.57691742
N        5.85894146      -6.87537317       1.08140995
N        5.38961706      -6.07893921       2.03186458
C        2.51579471      -1.11274876       2.63053053
Cl       3.52385653      -0.35009695       3.81688886
C        1.71240350      -0.29700588       1.83162904
H        0.20555368      -2.72798047      -0.01605057
H        1.60473921      -4.15413307       1.38066216
H        3.93768848      -2.73315722       3.94247188
H        3.36387928      -3.74962777       5.99846228
H        5.99903382      -6.68836878       7.69277572
H        6.34368876      -7.69634213       5.49972384
H        5.89548929      -8.88810504       3.55454190
H        1.73409025       0.78242587       1.95427449
