166
Properties=species:S:1:pos:R:3 pbc="F F F"
C        1.79172823       1.79172823      -1.79172823
C        2.64071563       2.72947327      -1.20142939
C        3.45376227       3.53228717      -2.00247828
C        3.40017886       3.40876059      -3.39115804
C        2.52423598       2.48734473      -3.97820630
C        1.73978653       1.65201772      -3.17724504
C        2.52411714       2.35214918      -5.45265641
O        3.61948661       2.24535118      -6.00151044
N        1.31237129       2.33907194      -6.14670359
C        1.39054598       2.18272202      -7.61516117
C        0.22666875       1.34853814      -8.18622906
C       -1.03626923       1.78796625      -7.54068561
N       -2.29814719       1.51785633      -7.97819424
H       -2.54427269       0.99169957      -8.80647417
C       -3.21590711       2.07369120      -7.11089231
C       -4.61600780       2.07193900      -7.14372003
Br      -5.56444793       1.22121096      -8.53850584
C       -5.30541483       2.71999251      -6.11645900
C       -4.61219576       3.35010152      -5.08517667
C       -3.21163490       3.34960528      -5.05931355
C       -2.49597521       2.70344076      -6.08823404
C       -1.11177709       2.51777997      -6.37272855
C        0.09116185       2.99749564      -5.62616295
H        2.68654995       2.83197313      -0.11982198
H        4.13517160       4.24661552      -1.54623861
H        4.04768904       4.01995468      -4.01700859
H        1.10127651       0.89956040      -3.63373388
H        2.33613388       1.71537828      -7.90915408
H        1.38294906       3.19433751      -8.04159414
H        0.39055955       0.28870398      -7.95775434
H        0.18191616       1.45926191      -9.27446478
H       -6.39265605       2.73678425      -6.11418737
H       -5.16332663       3.84839600      -4.29094333
H       -2.68612780       3.84519919      -4.24800304
H        0.21785891       4.07650792      -5.77289821
H       -0.03812867       2.82061174      -4.55825968
C       -1.79172823      -1.79172823      -1.79172823
C       -3.17629207      -1.61434275      -1.78098348
C       -3.98558792      -2.41249990      -2.59043990
C       -3.40954434      -3.39837854      -3.39217461
C       -2.02270623      -3.59154191      -3.37553887
C       -1.20554616      -2.76536176      -2.59814136
C       -1.44083135      -4.61747558      -4.27061580
O       -1.81425908      -4.60973420      -5.44235495
N       -0.50536294      -5.52452438      -3.76825950
C        0.04520365      -6.50824130      -4.72539151
C        1.52772670      -6.83364283      -4.45551982
C        1.71732213      -7.01561427      -2.99409048
N        2.79055459      -7.59856291      -2.38989507
H        3.59653511      -7.99521143      -2.85522473
C        2.62146708      -7.56918773      -1.02095576
C        3.44166211      -8.04910531       0.00779198
Br       5.08069835      -8.91146224      -0.36450498
C        3.01957975      -7.87876924       1.32815282
C        1.81152557      -7.24440933       1.60980133
C        0.99501840      -6.76825834       0.57595601
C        1.40107346      -6.93237043      -0.76440263
C        0.83380414      -6.58703736      -2.02549821
C       -0.46307498      -5.91289681      -2.33884864
H       -3.63203218      -0.84876041      -1.15755247
H       -5.06245079      -2.26114303      -2.60443190
H       -4.03692410      -4.00870914      -4.03901907
H       -0.12481745      -2.88091325      -2.62884008
H       -0.05489123      -6.15038447      -5.75539054
H       -0.56882475      -7.41392873      -4.63612724
H        2.15216175      -5.99739254      -4.79178708
H        1.82536039      -7.72691482      -5.01408842
H        3.63385786      -8.24113797       2.14896455
H        1.49770504      -7.11702756       2.64330981
H        0.05618354      -6.27561112       0.81235315
H       -1.29624780      -6.60430368      -2.16671357
H       -0.60408351      -5.05338599      -1.68327326
C       -1.79172823       1.79172823       1.79172823
C       -3.00950141       2.26344775       1.29866914
C       -3.82212497       3.06327831       2.10312444
C       -3.40504814       3.40518046       3.38986889
C       -2.16850737       2.95378958       3.86749006
C       -1.37174830       2.11737947       3.07992151
C       -1.77649284       3.29967009       5.25275980
O       -2.61799446       3.11744299       6.13091078
N       -0.49593094       3.79554283       5.50667305
C       -0.17045340       4.10157468       6.91640108
C        1.29878450       3.79327393       7.26694652
C        2.16519777       4.28963062       6.16794978
N        3.51300557       4.47968103       6.23122792
H        4.10255916       4.31896691       7.03749331
C        3.97303349       4.93054217       5.01116774
C        5.26644048       5.27062325       4.59546845
Br       6.73808210       5.15870889       5.77464208
C        5.44964044       5.70112238       3.27955474
C        4.36856508       5.78677709       2.40487042
C        3.07710000       5.44674318       2.82764075
C        2.86959456       5.01229610       4.15299806
C        1.72558659       4.60509811       4.89921991
C        0.29195511       4.52287406       4.48390148
H       -3.34011892       2.00195057       0.29627556
H       -4.78316371       3.41230711       1.73255491
H       -4.04610763       4.01245449       4.02609020
H       -0.43787317       1.72328458       3.47341303
H       -0.81985701       3.54262482       7.59818441
H       -0.38502337       5.16779727       7.06606007
H        1.43210018       2.70891279       7.36020526
H        1.56201790       4.25233510       8.22532565
H        6.44167541       5.97302286       2.92696812
H        4.52770808       6.12137881       1.38234198
H        2.24487162       5.51871952       2.13322653
H       -0.13352650       5.53004025       4.40369829
H        0.21436407       4.05074220       3.50436462
C        1.79172823      -1.79172823       1.79172823
C        2.85474983      -2.49470610       1.22216237
C        3.66780639      -3.29581494       2.02490639
C        3.40281803      -3.40710491       3.39017456
C        2.31655123      -2.72329539       3.94994039
C        1.52616579      -1.88646664       3.15641685
C        2.09001349      -2.82963566       5.40927358
O        3.06681721      -2.66206993       6.13746110
N        0.80768551      -3.09719851       5.89326280
C        0.65505439      -3.17103894       7.36233584
C       -0.69621331      -2.60982167       7.84782759
C       -1.76953814      -3.10999361       6.95192716
N       -3.10681736      -3.09189891       7.21282182
H       -3.54728308      -2.74590071       8.05528341
C       -3.79330082      -3.62205804       6.13991919
C       -5.16609205      -3.81990004       5.94584324
Br      -6.42382456      -3.34582265       7.27327078
C       -5.59236196      -4.38261439       4.74078425
C       -4.67009545      -4.73532458       3.75785329
C       -3.29818443      -4.53634809       3.95912028
C       -2.84618942      -3.97210547       5.16978355
C       -1.56326422      -3.64467014       5.69732552
C       -0.20680034      -3.82576113       5.09585964
H        3.06616474      -2.41360018       0.15858014
H        4.51237269      -3.82543226       1.59022078
H        4.04746098      -4.01563052       4.02156082
H        0.71731388      -1.31368440       3.60357251
H        1.46257489      -2.63077562       7.86731573
H        0.75204574      -4.22943427       7.63740070
H       -0.67576037      -1.51464043       7.79813780
H       -0.87301317      -2.90017718       8.88847885
H       -6.65160907      -4.54949387       4.56043077
H       -5.01780936      -5.17021448       2.82360759
H       -2.59204812      -4.81646852       3.18265403
H        0.07110384      -4.88614777       5.11001344
H       -0.21356625      -3.49819851       4.05611049
C       -0.00445707       0.01189536      -1.78238275
H       -0.66409135       0.67374010      -2.43557963
H        0.65740317      -0.63156657      -2.45157240
C       -0.90989263      -0.90692880      -0.91072765
C        0.90977584       0.90977584      -0.90977584
C       -0.00465871       1.77757030       0.00794375
H       -0.66225468       2.44313916      -0.64384735
H        0.64322798       2.43503045       0.67728295
C       -1.78241447       0.00034974      -0.00472694
H       -2.45427497      -0.65498947       0.64260836
H       -2.43311707       0.67328779      -0.65473579
C       -0.91132561       0.90220522       0.91563759
C       -0.01476271      -0.02253852       1.78660255
H       -0.67934791      -0.69751639       2.42135241
H        0.63392994       0.61504881       2.47327442
C        0.01484550      -1.77751727      -0.01636693
H        0.67870853      -2.42144646      -0.68295456
H       -0.62264859      -2.45592969       0.64226336
C        1.78714474       0.01002794       0.00389507
H        2.44202412       0.67113390       0.66197326
H        2.45385902      -0.65136977      -0.64189061
C        0.91606151      -0.90478549       0.90901405
