153
Properties=species:S:1:pos:R:3 pbc="F F F"
C        0.00000000       0.00000000       0.00000000
C        0.88182421       0.88182421      -0.88182421
C        1.73081161       1.81956924      -0.29152537
C        2.54385824       2.62238314      -1.09257426
C        2.49027484       2.49885657      -2.48125402
C        1.61433196       1.57744070      -3.06830228
C        0.82988250       0.74211370      -2.26734102
C        1.61421311       1.44224515      -4.54275239
O        2.70958259       1.33544716      -5.09160642
N        0.40246726       1.42916792      -5.23679957
C        0.48064195       1.27281800      -6.70525714
C       -0.68323528       0.43863412      -7.27632503
C       -1.94617326       0.87806222      -6.63078158
N       -3.20805121       0.60795230      -7.06829021
H       -3.45417671       0.08179555      -7.89657014
C       -4.12581113       1.16378718      -6.20098829
C       -5.52591183       1.16203497      -6.23381601
C       -6.21531886       1.81008848      -5.20655498
C       -5.52209979       2.44019750      -4.17527265
C       -4.12153892       2.43970126      -4.14940953
C       -3.40587924       1.79353674      -5.17833002
C       -2.02168112       1.60787595      -5.46282453
C       -0.81874217       2.08759162      -4.71625892
H        1.77664592       1.92206910       0.79008204
H        3.22526757       3.33671150      -0.63633458
H        3.13778502       3.11005066      -3.10710457
H        0.19137248      -0.01034362      -2.72382985
H        1.42622985       0.80547425      -6.99925006
H        0.47304504       2.28443349      -7.13169011
H       -0.51934447      -0.62120005      -7.04785032
H       -0.72798787       0.54935789      -8.36456076
H       -7.30256007       1.82688022      -5.20428334
H       -6.07323065       2.93849198      -3.38103931
H       -3.59603182       2.93529517      -3.33809902
H       -0.69204511       3.16660389      -4.86299419
H       -0.94803269       1.91070772      -3.64835565
C       -6.24887659       0.51355293      -7.29701542
C       -6.85435958      -0.02955078      -8.18744493
Br      -7.83337436      -0.90770355      -9.62719414
C       -0.88182421      -0.88182421      -0.88182421
C       -2.26719358      -0.71152293      -0.86318971
C       -3.07654648      -1.50967955      -1.67258961
C       -2.49960855      -2.48856250      -2.48221438
C       -1.11174637      -2.67476795      -2.47356061
C       -0.29483361      -1.84838729      -1.69611632
C       -0.52924870      -3.69320407      -3.37675789
O       -0.90865147      -3.68144220      -4.54654249
N        0.41332396      -4.59801911      -2.88373960
C        0.96398614      -5.57408515      -3.84861809
C        2.44948336      -5.89331831      -3.58788892
C        2.64740804      -6.08170106      -2.12837753
N        3.72662176      -6.66223935      -1.53257372
H        4.53222298      -7.05243888      -2.00397307
C        3.56433641      -6.64063396      -0.16266680
C        4.39215325      -7.12157111       0.85947871
C        3.97592140      -6.96004690       2.18280090
C        2.76612472      -6.33325492       2.47375984
C        1.94198880      -5.85603982       1.44647915
C        2.34206087      -6.01132056       0.10327217
C        1.76666375      -5.66250810      -1.15317501
C        0.46482450      -4.99338337      -1.45654949
H       -2.72362370       0.04857996      -0.23358924
H       -4.15421689      -1.36372003      -1.68037674
H       -3.12717315      -3.09879527      -3.12897183
H        0.78629501      -1.95829712      -1.73285661
H        0.85686088      -5.21154545      -4.87626960
H        0.35499876      -6.48331566      -3.76085174
H        3.06797437      -5.05222336      -3.92305680
H        2.74878485      -6.78223728      -4.15247835
H        4.59617806      -7.32343329       2.99865174
H        2.45691327      -6.21268641       3.50947251
H        1.00189038      -5.36936240       1.69010966
H       -0.36396299      -5.68986915      -1.28372083
H        0.32280682      -4.13791972      -0.79591778
C        5.64338337      -7.77112844       0.56605331
C        6.69128859      -8.31513270       0.32030953
Br       8.38566271      -9.19474158      -0.07703737
C       -0.88182421       0.88182421       0.88182421
C       -0.56674487       2.23213404       1.04302731
C       -1.37355358       3.04358214       1.84167993
C       -2.48044420       2.49764262       2.49229861
C       -2.77360727       1.13568136       2.35078630
C       -1.99219430       0.32965800       1.51748492
C       -3.98003347       0.59870748       3.02046971
O       -5.02373234       1.23370126       2.87920256
N       -3.89394551      -0.58382285       3.75831209
C       -5.14354787      -1.06824531       4.38341453
C       -5.24493721      -2.60649572       4.39328238
C       -3.93163085      -3.16807034       4.79911004
N       -3.69784154      -4.44448213       5.21483189
H       -4.38819355      -5.17739824       5.31339366
C       -2.35448414      -4.60227304       5.48675324
C       -1.64374034      -5.71866806       5.94486688
C       -0.26523691      -5.59714063       6.13322832
C        0.38276571      -4.39248034       5.86861640
C       -0.33442773      -3.27910572       5.41224986
C       -1.72746741      -3.37944135       5.21796146
C       -2.73949437      -2.47450252       4.78402752
C       -2.63210784      -1.03663241       4.38963294
H        0.29521162       2.66389923       0.53994538
H       -1.14661563       4.10164275       1.95005527
H       -3.12232854       3.13287198       3.09973973
H       -2.25395984      -0.71469715       1.36559602
H       -6.02109387      -0.66082015       3.87068044
H       -5.15662136      -0.67627185       5.40881913
H       -5.48563722      -2.96301860       3.38468718
H       -6.04534989      -2.92722995       5.06781083
H        0.31433503      -6.44574465       6.48868318
H        1.45723146      -4.31426522       6.01779732
H        0.18577177      -2.34712503       5.21025916
H       -2.47383932      -0.41483274       5.27854639
H       -1.77699926      -0.89452874       3.72856017
C       -2.30707592      -6.96656163       6.22117747
C       -2.86261947      -8.01167249       6.45258759
Br      -3.76088641      -9.70152836       6.82675819
C        0.88182421      -0.88182421       0.88182421
C        0.29155284      -1.82001240       1.73034098
C        1.09324020      -2.63312480       2.53245065
C        2.48078738      -2.49132966       2.49826839
C        3.06520497      -1.52748096       1.66738900
C        2.26726262      -0.74084911       0.83122549
C        4.54219459      -1.43324782       1.62376824
O        5.16294508      -2.48614530       1.48754578
N        5.15964716      -0.18469363       1.72409396
C        6.63673270      -0.16751349       1.65447090
C        7.18236719       1.07691319       0.92626987
C        6.43557696       2.27060348       1.39769707
N        6.80926995       3.57006462       1.22898598
H        7.64996388       3.89598256       0.77020766
C        5.85607245       4.39973198       1.78262387
C        5.80239610       5.79680151       1.86434456
C        4.69855821       6.38393863       2.48670502
C        3.67716545       5.59431008       3.01051499
C        3.73794049       4.19732604       2.92695741
C        4.84494367       3.58401077       2.30505462
C        5.22471675       2.23282090       2.05712351
C        4.52724846       0.96116166       2.41902156
H       -0.78928495      -1.93492624       1.76299170
H        0.63918819      -3.38274049       3.17638497
H        3.10882841      -3.13785637       3.10825546
H        2.72643070      -0.03160821       0.14681980
H        7.01526039      -1.06372208       1.15197170
H        7.00231667      -0.19762987       2.68922210
H        7.02648698       0.96579237      -0.15338881
H        8.25747378       1.17796341       1.10642042
H        4.62815653       7.46608977       2.56653673
H        2.82276753       6.06647503       3.49000813
H        2.93319059       3.59590896       3.34008073
H        4.61851878       0.77680334       3.49583752
H        3.46549824       1.03879647       2.18432891
C        6.85482208       6.61905992       1.32592961
C        7.73622883       7.30770135       0.87500709
Br       9.16138901       8.42117629       0.14590352
