121
Properties=species:S:1:pos:R:3 pbc="F F F"
C        0.00000000       0.00000000       0.00000000
C        0.88111276       0.88111276      -0.88111276
C        0.80451519       2.26557076      -0.77172294
C        1.59601537       3.07355352      -1.59391938
C        2.46244840       2.50208369      -2.54772227
N        3.14702117       3.37998715      -3.42551555
C        3.71039171       3.17119976      -4.65960906
N        4.29676400       4.27514817      -5.06304455
N        4.05396637       5.20360007      -4.08957417
N        3.33217531       4.68399397      -3.10845888
C        2.56957234       1.10250661      -2.60720963
C        1.76267352       0.29605468      -1.78522785
C        3.52613497       0.36263601      -3.45827628
O        3.05498001      -0.42447364      -4.26510431
N        4.85726905       0.67254019      -3.25061821
C        5.96165569       0.12821755      -3.94702699
C        5.87018405      -0.96454789      -4.81398746
C        7.00595582      -1.45354838      -5.46800337
C        8.24367328      -0.84769668      -5.26975705
C        8.33920920       0.24275676      -4.41029194
Br      10.01412428       1.08139057      -4.14898141
C        7.21092209       0.72732656      -3.74359764
H        0.11907197       2.72922667      -0.06491697
H        1.48451115       4.15499259      -1.50508288
H        3.65122924       2.25137089      -5.22120523
H        1.83319705      -0.78889826      -1.85504724
H        5.08452815       1.37455215      -2.55514091
H        4.92946769      -1.47707030      -4.99225000
H        6.91841701      -2.31019294      -6.13238492
H        9.11942778      -1.23053889      -5.78702394
H        7.31273660       1.58666152      -3.08650906
C       -0.88111276      -0.88111276      -0.88111276
C       -1.45280835      -0.35447112      -2.03452943
C       -2.27756818      -1.15526112      -2.83065898
C       -2.55199774      -2.49008688      -2.47016974
N       -3.48735350      -3.20647223      -3.25869814
C       -4.25381003      -4.30985636      -2.97753415
N       -4.92675461      -4.65757254      -4.05062957
N       -4.61536595      -3.72824845      -5.00352622
N       -3.77049342      -2.82635035      -4.52778440
C       -1.92254623      -3.02364596      -1.33309639
C       -1.10325699      -2.20963885      -0.53106020
C       -2.00646633      -4.43635927      -0.90422166
O       -2.45654873      -4.65026423       0.21120229
N       -1.58014345      -5.35982855      -1.84045545
C       -1.58132927      -6.76627499      -1.68929597
C       -1.82726804      -7.41607274      -0.47628284
C       -1.80929053      -8.81266010      -0.39846018
C       -1.55549751      -9.57437373      -1.53586241
C       -1.31353984      -8.93212489      -2.74659318
Br      -0.98459842      -9.96052838      -4.29936946
C       -1.31665171      -7.53724414      -2.82795044
H       -1.28093646       0.68287756      -2.31515671
H       -2.73668513      -0.69916372      -3.70873777
H       -4.31507231      -4.79394523      -2.01478781
H       -0.63882997      -2.62376096       0.36324490
H       -1.25630022      -5.01904950      -2.73887148
H       -2.01913049      -6.86538948       0.43987258
H       -1.99406417      -9.30177700       0.55523219
H       -1.54979651     -10.65895945      -1.46715687
H       -1.13496414      -7.06262202      -3.78832102
C       -0.88111276       0.88111276       0.88111276
C       -0.65452073       0.93492883       2.25235933
C       -1.47517505       1.72540326       3.06290998
C       -2.54393283       2.45906074       2.50926080
N       -3.40481898       3.14501104       3.40269385
C       -4.69622737       3.58694154       3.25803163
N       -5.05935707       4.23328271       4.34231695
N       -3.99691869       4.15164658       5.19857534
N       -3.00138838       3.46838133       4.65485844
C       -2.72486061       2.43824365       1.11618432
C       -1.90294969       1.63259622       0.30841012
C       -3.71302730       3.25492259       0.37909739
O       -4.53620313       2.65341587      -0.29400832
N       -3.59834588       4.62042664       0.56165493
C       -4.43016023       5.61341573      -0.00667573
C       -5.37081586       5.35733973      -1.00853197
C       -6.15883568       6.38973739      -1.52816226
C       -6.02154237       7.68761204      -1.04342075
C       -5.08887032       7.94691890      -0.04353131
Br      -4.90848458       9.70432306       0.63168863
C       -4.28927256       6.92258446       0.46998927
H        0.14449443       0.35169816       2.70601188
H       -1.29029360       1.71640700       4.13788602
H       -5.32260612       3.40261438       2.39858485
H       -2.06564709       1.60212312      -0.76842419
H       -2.87124218       4.96337189       1.17960714
H       -5.50673989       4.36413198      -1.42622449
H       -6.87971194       6.17449911      -2.31360206
H       -6.64250862       8.48210878      -1.44870457
H       -3.57666988       7.15164648       1.25759081
C        0.88111276      -0.88111276       0.88111276
C        2.24916593      -0.95221998       0.64042299
C        3.05356048      -1.77602746       1.43390034
C        2.49219990      -2.55143947       2.46861499
N        3.34629098      -3.45041265       3.15582024
C        3.07459763      -4.58017191       3.88643100
N        4.19150191      -5.04989293       4.39356188
N        5.18396471      -4.23075802       3.93241789
N        4.68999900      -3.27810760       3.15652156
C        1.11846295      -2.42590564       2.73491999
C        0.31365716      -1.60418537       1.92611351
C        0.41336750      -3.06936201       3.86431776
O       -0.50941427      -3.81976304       3.58526190
N        0.90581577      -2.75691715       5.11769453
C        0.42875043      -3.25573672       6.35241307
C       -0.75530192      -3.98618837       6.48873716
C       -1.16929072      -4.44657466       7.74312687
C       -0.39748837      -4.19011614       8.87310588
C        0.78396339      -3.46632714       8.74196738
Br       1.84614676      -3.12846090      10.26988860
C        1.19589335      -2.99207008       7.49388286
H        2.69943462      -0.38731172      -0.17353073
H        4.11618894      -1.83388902       1.19450866
H        2.09854752      -5.02721062       3.99804721
H       -0.75540396      -1.53162319       2.12312680
H        1.70241097      -2.13257364       5.17923660
H       -1.39626331      -4.20190279       5.63900791
H       -2.09777777      -5.00588675       7.83250001
H       -0.72383404      -4.55719066       9.84255620
H        2.12799429      -2.43871885       7.41919404
