129
Properties=species:S:1:pos:R:3 pbc="F F F"
C        0.00000000       0.00000000       0.00000000
C        0.88111276       0.88111276      -0.88111276
C        0.80451519       2.26557076      -0.77172294
C        1.59601537       3.07355352      -1.59391938
C        2.46244840       2.50208369      -2.54772227
N        3.14702117       3.37998715      -3.42551555
C        3.71039171       3.17119976      -4.65960906
N        4.29676400       4.27514817      -5.06304455
N        4.05396637       5.20360007      -4.08957417
N        3.33217531       4.68399397      -3.10845888
C        2.56957234       1.10250661      -2.60720963
C        1.76267352       0.29605468      -1.78522785
C        3.52613497       0.36263601      -3.45827628
O        3.05498001      -0.42447364      -4.26510431
N        4.85726905       0.67254019      -3.25061821
C        5.96165569       0.12821755      -3.94702699
C        5.87018405      -0.96454789      -4.81398746
C        7.00595582      -1.45354838      -5.46800337
C        8.24367328      -0.84769668      -5.26975705
C        8.33920920       0.24275676      -4.41029194
C        7.21092209       0.72732656      -3.74359764
H        0.11907197       2.72922667      -0.06491697
H        1.48451115       4.15499259      -1.50508288
H        3.65122924       2.25137089      -5.22120523
H        1.83319705      -0.78889826      -1.85504724
H        5.08452815       1.37455215      -2.55514091
H        4.92946769      -1.47707030      -4.99225000
H        6.91841701      -2.31019294      -6.13238492
H        9.11942778      -1.23053889      -5.78702394
H        7.31273660       1.58666152      -3.08650906
C        9.61447303       0.88128428      -4.21133268
C       10.68250648       1.41605107      -4.04470430
Br      12.40942624       2.28072375      -3.77528030
C       -0.88111276      -0.88111276      -0.88111276
C       -1.64185617      -1.89370938      -0.30624335
C       -2.43273660      -2.71507539      -1.11567628
C       -2.45724509      -2.54075015      -2.51425912
N       -3.18860399      -3.48123402      -3.28268586
C       -3.09773415      -3.83868487      -4.60478151
N       -4.03624382      -4.71396321      -4.88474970
N       -4.69293121      -4.94574854      -3.70846086
N       -4.16956927      -4.23051631      -2.72454258
C       -1.72726072      -1.47856284      -3.07346502
C       -0.92550192      -0.66346838      -2.25498573
C       -1.75810554      -1.08922343      -4.49971830
O       -0.69408216      -1.10164352      -5.09988500
N       -3.00998987      -0.77537546      -4.99506212
C       -3.31367232      -0.39888891      -6.32433900
C       -2.34508418      -0.09056616      -7.28397327
C       -2.71760162       0.27813273      -8.58094193
C       -4.06306669       0.33200375      -8.93467072
C       -5.03099945       0.02250969      -7.98376815
C       -4.66575777      -0.33323088      -6.68285764
H       -1.61353483      -2.06740711       0.76772633
H       -2.98889611      -3.52086804      -0.63482247
H       -2.35043953      -3.47822544      -5.29514038
H       -0.34244513       0.14247045      -2.69937134
H       -3.80486434      -0.84046855      -4.36888832
H       -1.28408470      -0.10765655      -7.05290614
H       -1.95123999       0.52333283      -9.31270183
H       -4.34282040       0.61334199      -9.94643442
H       -5.44210226      -0.57997182      -5.96383309
C       -6.42365169       0.06417555      -8.34761386
C       -7.58999794       0.09907071      -8.65233463
Br      -9.47588118       0.15549323      -9.14504236
C       -0.88111276       0.88111276       0.88111276
C       -2.22036320       0.55473842       1.06670727
C       -3.03330694       1.37364855       1.85653279
C       -2.51603130       2.53951047       2.45671259
N       -3.42274443       3.38325983       3.14651962
C       -3.35291594       4.71439369       3.47389091
N       -4.41067896       5.04558662       4.17869115
N       -5.17884325       3.91718217       4.25111520
N       -4.60811153       2.91291641       3.60360021
C       -1.14872962       2.82495961       2.30559935
C       -0.33960941       2.00331826       1.50102836
C       -0.43606570       3.93184209       2.97913949
O        0.11745482       4.75129297       2.26177252
N       -0.50253985       3.91799834       4.35988926
C        0.06913334       4.87127017       5.23476340
C        0.96608810       5.86167424       4.82403747
C        1.49607800       6.77097497       5.74551385
C        1.12605612       6.70570656       7.08608322
C        0.23063704       5.72365607       7.49923888
C       -0.29169290       4.80399792       6.58615547
H       -2.64924380      -0.32284225       0.58681406
H       -4.08654146       1.10631105       1.95173411
H       -2.56563566       5.38757690       3.17059279
H        0.71428222       2.24545890       1.36816935
H       -1.02923827       3.17663073       4.80835220
H        1.29310703       5.94588513       3.79186929
H        2.19954660       7.52975028       5.41040531
H        1.53806210       7.42032803       7.79364690
H       -0.99693487       4.05443161       6.93454070
C       -0.16545437       5.65943359       8.88220203
C       -0.49718093       5.60564727      10.04043366
Br      -1.03355472       5.51867933      11.91319626
C        0.88111276      -0.88111276       0.88111276
C        1.30719546      -0.41445290       2.12016053
C        2.13216043      -1.21286490       2.91846294
C        2.55317266      -2.48324180       2.47583990
N        3.48101158      -3.18813848       3.28337381
C        4.36328794      -4.19557601       2.98233659
N        4.97445915      -4.58138616       4.07911142
N        4.50444298      -3.76940685       5.07329079
N        3.62426520      -2.90086178       4.59950119
C        2.06903827      -2.96295430       1.24729601
C        1.24880794      -2.15044762       0.44470047
C        2.31348992      -4.32013973       0.71341762
O        2.87065509      -4.39610959      -0.37115401
N        1.89605349      -5.35524349       1.52913047
C        2.03508635      -6.73775835       1.26405554
C        2.43648859      -7.25441847       0.02871656
C        2.54961606      -8.63525855      -0.16446380
C        2.27254051      -9.51362136       0.87957179
C        1.87595042      -9.00392506       2.11238243
C        1.74792960      -7.62631131       2.30760538
H        1.02106450       0.57615635       2.46830746
H        2.47532620      -0.80088071       3.86837971
H        4.54610097      -4.58519287       1.99251151
H        0.89795449      -2.51975236      -0.51836082
H        1.47064362      -5.12363773       2.41993986
H        2.65280561      -6.61034247      -0.81850069
H        2.85473912      -9.02056346      -1.13469359
H        2.36927136     -10.58456387       0.72207760
H        1.44661643      -7.25573773       3.28355301
C        1.60041835      -9.90716326       3.19950839
C        1.36966024     -10.66362524       4.10997638
Br       0.99654390     -11.88676029       5.58212611
