133
Properties=species:S:1:pos:R:3 pbc="F F F"
C        0.00000000       0.00000000       0.00000000
C        0.88458263       0.88458263      -0.88458263
C        0.89534451       2.26361366      -0.68157062
C        1.69315344       3.06555770      -1.49321374
C        2.47477366       2.48142658      -2.49521335
C        2.48172850       1.09406565      -2.70487998
C        1.66631085       0.30284383      -1.88333352
C        3.33327590       0.48932019      -3.75879143
C        3.78251372      -0.94013557      -3.61763155
N        3.60898924       1.21986833      -4.86604384
N        4.36872089       0.48745995      -5.86598991
C        4.66906233       1.15940621      -6.99847320
C        4.17423169       2.55464268      -7.23822946
C        5.56067810       0.48241335      -7.97176656
C        5.57894824      -0.92042928      -8.05253303
C        6.41367729      -1.59778702      -8.94476129
C        7.25696731      -0.87133614      -9.78118651
C        7.25534185       0.52123287      -9.70967809
Br       8.41804461       1.50637580     -10.83625995
C        6.41859580       1.19663588      -8.81614281
H        0.28636522       2.71789494       0.09128423
H        1.71544520       4.14178098      -1.36573689
H        3.09924094       3.09633094      -3.14294536
H        1.63380507      -0.76806392      -2.05097228
H        3.86448497      -1.22955205      -2.56367514
H        4.77567660      -1.12489574      -4.03825335
H        3.06701798      -1.61357163      -4.10031390
H        3.10010601       2.64124081      -7.04148898
H        4.30472110       2.86444303      -8.28035788
H        4.70846804       3.27289031      -6.60788315
H        4.92438511      -1.47696534      -7.38013854
H        6.40035018      -2.68059804      -8.96310151
H        7.91197965      -1.39591700     -10.46688945
H        6.44998211       2.27649584      -8.74354723
C       -0.88458263      -0.88458263      -0.88458263
C       -0.45312607      -2.16675277      -1.22064995
C       -1.25504997      -2.96457585      -2.03229906
C       -2.48070977      -2.47527704      -2.49542679
C       -2.93260459      -1.19062129      -2.15744825
C       -2.10848280      -0.39830752      -1.34569788
C       -4.24534635      -0.69562033      -2.64042085
C       -4.96899818       0.36715374      -1.85816527
N       -4.71386383      -1.15534374      -3.82569384
N       -5.95851663      -0.52669144      -4.23696269
C       -6.47389319      -0.93698337      -5.41606518
C       -5.75592496      -1.92614297      -6.28503590
C       -7.81096182      -0.41423186      -5.78966433
C       -8.22846914       0.84583206      -5.32841491
C       -9.48460549       1.36889213      -5.64493820
C      -10.35620064       0.62752914      -6.43814619
C       -9.95967371      -0.62723145      -6.89934766
Br     -11.15572060      -1.64182768      -7.96313208
C       -8.70177118      -1.14814211      -6.58146120
H        0.49864915      -2.54517150      -0.86645359
H       -0.94232306      -3.96225277      -2.31838724
H       -3.11646380      -3.08510271      -3.13695072
H       -2.42585521       0.60911291      -1.09997113
H       -4.72150982       0.31462636      -0.79172460
H       -6.05803025       0.26850679      -1.89951075
H       -4.69346429       1.36207483      -2.22237078
H       -4.70524268      -1.65066828      -6.42692484
H       -6.18221602      -1.97482720      -7.29247878
H       -5.80307934      -2.93165209      -5.85451007
H       -7.54127692       1.40864239      -4.69492378
H       -9.76594682       2.34019022      -5.25709705
H      -11.33462403       1.02799602      -6.67632409
H       -8.41681920      -2.13796258      -6.91524339
C       -0.88458263       0.88458263       0.88458263
C       -1.50895684       2.00096933       0.33060262
C       -2.30461492       2.80798764       1.13932232
C       -2.47181602       2.48885380       2.49074377
C       -1.85766314       1.36300499       3.06000601
C       -1.05374593       0.56618696       2.23255531
C       -2.06308319       1.02760345       4.49070088
C       -1.91429922      -0.39943212       4.94514261
N       -2.29310874       2.03661726       5.36517541
N       -2.38171669       1.59350279       6.74695128
C       -2.60247522       2.55486568       7.66960084
C       -2.67039220       4.00465057       7.29206105
C       -2.83583073       2.11275767       9.06626961
C       -2.26091790       0.91805295       9.53208113
C       -2.46697960       0.45851097      10.83516099
C       -3.26482019       1.19721010      11.70478739
C       -3.84751240       2.38211058      11.25662984
Br      -4.94825141       3.37545702      12.43697192
C       -3.63926255       2.83997754       9.95213440
H       -1.37618519       2.25206349      -0.71527275
H       -2.79543174       3.68794063       0.73959069
H       -3.08597289       3.11441620       3.13812814
H       -0.54507416      -0.29003372       2.66167299
H       -2.15996953      -1.10140030       4.14003884
H       -2.58848358      -0.66468285       5.76523347
H       -0.88442779      -0.59272523       5.26205769
H       -1.82395425       4.29748776       6.66139379
H       -2.62138374       4.66081989       8.16731838
H       -3.60132534       4.22728783       6.76062833
H       -1.65101178       0.34168067       8.83486585
H       -2.01149213      -0.47388885      11.14525037
H       -3.43332128       0.83680908      12.71282174
H       -4.12429740       3.74282407       9.60290370
C        0.88458263      -0.88458263       0.88458263
C        1.99658044      -0.32879591       1.51515244
C        2.80364717      -1.13747335       2.31080436
C        2.48892395      -2.49068039       2.47180926
C        1.36748312      -3.06182218       1.85136883
C        0.57057748      -2.23434551       1.04756521
C        1.03664564      -4.49450395       2.05023793
C       -0.38812902      -4.95367336       1.89446536
N        2.04804532      -5.36608340       2.28077269
N        1.60974726      -6.74981151       2.36261198
C        2.57371017      -7.66970741       2.58352415
C        4.02181943      -7.28705386       2.65823053
C        2.13593764      -9.06886280       2.81005758
C        0.94511175      -9.53695634       2.22898390
C        0.48965857     -10.84248718       2.42850580
C        1.22862548     -11.71233172       3.22586048
C        2.40968410     -11.26195715       3.81461157
Br       3.40332805     -12.44269604       4.91465627
C        2.86346511      -9.95500882       3.61290055
H        2.24427363       0.71848911       1.38719142
H        3.68028299      -0.73631221       2.80636786
H        3.11460976      -3.13802204       3.08588543
H       -0.28215092      -2.66473795       0.53412640
H       -1.09399180      -4.15209513       2.14050473
H       -0.65282420      -5.77724288       2.56461552
H       -0.57642517      -5.26747031       0.86271511
H        4.31544334      -6.65216254       1.81522992
H        4.68141623      -8.15968572       2.60842005
H        4.23902815      -6.75826557       3.59194779
H        0.36841432      -8.83961802       1.61952597
H       -0.43988761     -11.15433301       1.96840826
H        0.87135383     -12.72231412       3.38928415
H        3.76320338      -9.60424160       4.10258019
