154
Properties=species:S:1:pos:R:3 pbc="F F F"
C        1.79448666       1.79448666      -1.79448666
C        1.80524854       3.17351768      -1.59147464
C        2.60305747       3.97546172      -2.40311776
C        3.38467768       3.39133061      -3.40511738
C        3.39163253       2.00396968      -3.61478400
C        2.57621487       1.21274786      -2.79323754
C        4.24317993       1.39922421      -4.66869546
C        4.69241774      -0.03023154      -4.52753557
N        4.51889327       2.12977235      -5.77594786
N        5.27862492       1.39736397      -6.77589394
C        5.57896635       2.06931023      -7.90837722
C        5.08413571       3.46454670      -8.14813348
C        6.47058212       1.39231738      -8.88167058
C        6.48885227      -0.01052526      -8.96243705
C        7.32358132      -0.68788300      -9.85466531
C        8.16687134       0.03856789     -10.69109053
C        8.16524588       1.43113690     -10.61958212
Br       9.32794864       2.41627982     -11.74616397
C        7.32849982       2.10653991      -9.72604683
H        1.19626925       3.62779897      -0.81861980
H        2.62534923       5.05168500      -2.27564091
H        4.00914496       4.00623496      -4.05284938
H        2.54370909       0.14184010      -2.96087631
H        4.77438900      -0.31964803      -3.47357916
H        5.68558062      -0.21499172      -4.94815738
H        3.97692201      -0.70366761      -5.01021793
H        4.01001004       3.55114483      -7.95139301
H        5.21462512       3.77434705      -9.19026190
H        5.61837206       4.18279434      -7.51778718
H        5.83428913      -0.56706132      -8.29004257
H        7.31025420      -1.77069402      -9.87300554
H        8.82188367      -0.48601298     -11.37679348
H        7.35988613       3.18639986      -9.65345125
C       -1.79448666      -1.79448666      -1.79448666
C       -2.16487193      -1.34459935      -3.06076958
C       -2.97643429      -2.14680098      -3.85840168
C       -3.40521515      -3.39101876      -3.38489176
C       -3.03246441      -3.86134675      -2.11657505
C       -2.22135179      -3.03684496      -1.32400352
C       -3.47924227      -5.19312555      -1.63873178
C       -2.66149337      -5.92173029      -0.60649811
N       -4.66405062      -5.67629983      -2.08426303
N       -5.03780144      -6.94121512      -1.47286627
C       -6.21451489      -7.47208406      -1.87005486
C       -7.11734421      -6.75237075      -2.82710094
C       -6.55092057      -8.82651962      -1.36712990
C       -6.05612626      -9.25949603      -0.12514177
C       -6.33707560     -10.53188456       0.37859652
C       -7.12768351     -11.40447514      -0.36437111
C       -7.62190722     -10.99257478      -1.60148289
Br      -8.68207823     -12.18954292      -2.61877128
C       -7.33958681      -9.71843580      -2.10306394
H       -1.83731400      -0.37855358      -3.42682043
H       -3.28876052      -1.82022045      -4.84369417
H       -4.04621287      -4.02740290      -3.99461354
H       -1.94908195      -3.36907764      -0.32826592
H       -1.60144264      -5.65175238      -0.67512512
H       -2.68324675      -7.00920805      -0.72629149
H       -3.01090696      -5.67337067       0.40080531
H       -7.27441941      -5.71043200      -2.52769646
H       -8.11692457      -7.19788315      -2.86442635
H       -6.70637396      -6.77089255      -3.84168707
H       -5.42512687      -8.57092544       0.43878192
H       -5.92419175     -10.82451362       1.33613965
H       -7.33829617     -12.39525083       0.02088283
H       -7.69887911      -9.42073839      -3.08011974
C       -1.79448666       1.79448666       1.79448666
C       -2.33013869       1.27030148       2.96980069
C       -3.14115365       2.07386401       3.76661929
C       -3.40446587       3.39300925       3.38365054
C       -2.86439628       3.93739271       2.20859723
C       -2.05637595       3.11131992       1.41450440
C       -3.13709454       5.34549409       1.82851097
C       -2.15633070       6.07933280       0.95405827
N       -4.31158602       5.90279635       2.21023111
N       -4.50459593       7.24951177       1.69777513
C       -5.66183607       7.85767037       2.03714737
C       -6.71850135       7.14808734       2.83022721
C       -5.82058982       9.27939204       1.64458822
C       -5.16567963       9.77206842       0.50301601
C       -5.27691361      11.10699349       0.10645653
C       -6.05522510      11.98317819       0.85812646
C       -6.70715143      11.51177032       1.99704315
Br      -7.75049280      12.71138778       3.02851185
C       -6.59450187      10.17517022       2.39141448
H       -2.13084468       0.24676578       3.26507755
H       -3.57970249       1.69168511       4.68128754
H       -4.04273461       4.03229633       3.99319836
H       -1.65594185       3.50408903       0.48639462
H       -1.13773947       5.69879564       1.09178503
H       -2.09050555       7.14793500       1.18030573
H       -2.42372622       5.96059734      -0.10085124
H       -6.93923300       6.15904124       2.41427363
H       -7.67180684       7.68674577       2.82068146
H       -6.41187289       7.03225480       3.87482589
H       -4.54670235       9.07789943      -0.06733141
H       -4.74464253      11.44286848      -0.77494530
H       -6.13446528      13.02118831       0.55701059
H       -7.07610901       9.82709062       3.29653761
C        1.79448666      -1.79448666       1.79448666
C        1.79449162      -3.17490630       1.60084294
C        2.59236708      -3.97675617       2.41251370
C        3.38477229      -3.39119145       3.40516193
C        3.40258533      -2.00251826       3.60528262
C        2.58696139      -1.21133695       2.78390193
C        4.26540956      -1.39646578       4.64922426
C        4.72337147       0.02889205       4.49524235
N        4.54372052      -2.12134406       5.75954890
N        5.31523140      -1.38737321       6.74927822
C        5.61873998      -2.05364938       7.88426446
C        5.11609417      -3.44380790       8.13691382
C        6.52157011      -1.37617456       8.84682541
C        6.54992147       0.02702659       8.91786918
C        7.39531555       0.70470467       9.79975275
C        8.23935232      -0.02179828      10.63537916
C        8.22777798      -1.41477723      10.57340968
Br       9.39143987      -2.40017378      11.69877878
C        7.38037132      -2.09049575       9.69021948
H        1.17716865      -3.63025140       0.83526796
H        2.60647502      -5.05394787       2.29225225
H        4.00946365      -4.00593821       4.05282745
H        2.56287848      -0.13911784       2.94442918
H        4.80009635       0.31057480       3.43879859
H        5.72062017       0.20970816       4.90783427
H        4.01578504       0.71046942       4.97815670
H        4.04008451      -3.52439192       7.94807143
H        5.25160072      -3.74740706       9.18022630
H        5.64111527      -4.16995812       7.50788019
H        5.89457046       0.58344607       8.24614599
H        7.38947014       1.78768112       9.81077670
H        8.90258766       0.50293626      11.31301277
H        7.40392405      -3.17101335       9.62479984
C       -0.00445707       0.01189536      -1.78238275
H       -0.66409135       0.67374010      -2.43557963
H        0.65740317      -0.63156657      -2.45157240
C       -0.90989263      -0.90692880      -0.91072765
C        0.90977584       0.90977584      -0.90977584
C       -0.00465871       1.77757030       0.00794375
H       -0.66225468       2.44313916      -0.64384735
H        0.64322798       2.43503045       0.67728295
C       -1.78241447       0.00034974      -0.00472694
H       -2.45427497      -0.65498947       0.64260836
H       -2.43311707       0.67328779      -0.65473579
C       -0.91132561       0.90220522       0.91563759
C       -0.01476271      -0.02253852       1.78660255
H       -0.67934791      -0.69751639       2.42135241
H        0.63392994       0.61504881       2.47327442
C        0.01484550      -1.77751727      -0.01636693
H        0.67870853      -2.42144646      -0.68295456
H       -0.62264859      -2.45592969       0.64226336
C        1.78714474       0.01002794       0.00389507
H        2.44202412       0.67113390       0.66197326
H        2.45385902      -0.65136977      -0.64189061
C        0.91606151      -0.90478549       0.90901405
