198
Properties=species:S:1:pos:R:3 pbc="F F F"
C        3.89298132       5.48523246      -4.48705816
O        4.26370994       4.14777728      -4.18010636
C        3.40041037       3.40658548      -3.41435266
C        2.13830173       3.84865175      -3.00166966
C        1.33014677       3.03844371      -2.20016478
C        1.79201897       1.79201897      -1.79201897
C        3.04661271       1.33828709      -2.19161525
C        3.85221464       2.12151488      -3.03922047
C        5.22084719       1.62766985      -3.48488202
N        5.36363884       0.15379476      -3.66709261
C        4.49958201      -0.31266249      -4.76029071
C        6.79288484      -0.12478019      -3.95651151
C        7.19137888      -1.58036291      -4.28780581
H        6.67769195      -1.90553278      -5.19881183
O        8.59707054      -1.60933388      -4.60038667
C        6.91096088      -2.59003304      -3.16814401
O        7.72157035      -2.26985376      -2.02933009
C        7.68761661      -3.15939168      -0.98690393
C        8.47248805      -2.80332671       0.11524636
C        8.53164944      -3.62667298       1.24184399
C        7.80556608      -4.81338267       1.26673996
Br       7.88087897      -5.93436699       2.78702285
C        7.02072604      -5.18061641       0.17541390
C        6.96126234      -4.35160379      -0.94904484
H        4.71852654       5.94206907      -5.04305037
H        3.73988054       6.07605537      -3.57719014
H        3.00676784       5.50920482      -5.13018753
H        1.74961383       4.82022592      -3.28855208
H        0.34974748       3.39434861      -1.89507176
H        3.40246200       0.36427220      -1.86196301
H        5.92735364       1.96483873      -2.71626867
H        5.50229743       2.11786159      -4.42552032
H        3.44918365      -0.07309031      -4.57807132
H        4.53100976      -1.40429705      -4.83376294
H        4.78754687       0.11303741      -5.72562250
H        7.39647763       0.20230681      -3.09983603
H        7.12848203       0.49954856      -4.79762029
H        9.06291253      -1.57760854      -3.74261413
H        7.19653018      -3.58072036      -3.54213791
H        5.85079704      -2.58063482      -2.89542913
H        9.03998632      -1.87644266       0.09701597
H        9.14462200      -3.33226402       2.09000776
H        6.45228561      -6.10627657       0.18875640
H        6.33719274      -4.67105872      -1.77781340
C       -5.37724606      -4.71236259      -3.77566330
O       -4.16085308      -4.16449317      -4.26624733
C       -3.40466295      -3.41499818      -3.40168738
C       -3.70355523      -3.23926781      -2.04580010
C       -2.89252823      -2.43732697      -1.23890006
C       -1.79201897      -1.79201897      -1.79201897
C       -1.48226240      -1.95415420      -3.14009845
C       -2.26050195      -2.79760594      -3.95484209
C       -1.92243812      -2.98419898      -5.42676195
N       -0.47517722      -2.92504704      -5.78430195
C        0.25196599      -4.03902799      -5.16014824
C       -0.37736921      -2.98266629      -7.26458066
C        1.03316735      -3.03935823      -7.89263090
H        1.54611260      -3.95047683      -7.56660677
O        0.89276477      -3.15987413      -9.32101397
C        1.92009998      -1.82763035      -7.58154149
O        1.33842595      -0.65406510      -8.16540753
C        2.08088340       0.49590860      -8.09192086
C        1.47259493       1.62486336      -8.65137326
C        2.12542629       2.85953815      -8.64809692
C        3.39369902       2.96673593      -8.08587841
Br       4.28506102       4.63375554      -8.07830569
C        4.01153400       1.85005928      -7.52628901
C        3.35291605       0.61659911      -7.52821855
H       -5.87614177      -5.21877094      -4.60873327
H       -6.05125698      -3.92804625      -3.41382282
H       -5.18576777      -5.46094951      -2.99944291
H       -4.56116354      -3.71533215      -1.58189613
H       -3.13497127      -2.31785568      -0.18634090
H       -0.62290034      -1.44003858      -3.56575830
H       -2.45744420      -2.18955267      -5.96146416
H       -2.32336520      -3.94297330      -5.77934083
H        0.14986713      -4.03175227      -4.07227952
H        1.32700656      -3.94454351      -5.34293869
H       -0.08351307      -5.01157221      -5.53112150
H       -0.89855381      -2.11348164      -7.68658502
H       -0.93072030      -3.85682910      -7.63810149
H        0.68150704      -2.26345690      -9.64596827
H        2.89718130      -2.00995980      -8.04516923
H        2.03342151      -1.69864170      -6.50037116
H        0.48179105       1.54237716      -9.09069590
H        1.63598269       3.72645304      -9.08478595
H        5.00190974       1.92744958      -7.08661196
H        3.86605987      -0.22900746      -7.08099983
C       -4.09748088       5.54818048       4.21961059
O       -4.25514286       4.13565286       4.20079786
C       -3.39937973       3.40900481       3.41296396
C       -2.32267588       3.95836377       2.70758350
C       -1.51309512       3.14946063       1.90619951
C       -1.79201897       1.79201897       1.79201897
C       -2.86130526       1.23007838       2.48513140
C       -3.65614352       2.02183227       3.33497419
C       -4.82130912       1.41172957       4.10036038
N       -4.65576873      -0.00595582       4.53471331
C       -3.55932011      -0.11860930       5.50649943
C       -5.94443460      -0.44598939       5.12617095
C       -6.00693187      -1.85813980       5.75002972
H       -5.30522844      -1.92272761       6.58847016
O       -7.31577623      -2.04808733       6.32043442
C       -5.72172669      -3.00264168       4.76998685
O       -6.74615070      -3.03199903       3.76689501
C       -6.71031655      -4.08418238       2.88899470
C       -7.71074162      -4.06785216       1.91102552
C       -7.79077154      -5.08616567       0.95852661
C       -6.86872056      -6.12791278       0.98463568
Br      -6.97047639      -7.51098660      -0.30000066
C       -5.86793466      -6.15710246       1.95386353
C       -5.78900577      -5.13364611       2.90334373
H       -4.89635358       5.96577238       4.84152002
H       -4.20200539       5.97509754       3.21602311
H       -3.14173211       5.83050004       4.67392804
H       -2.08235868       5.01512301       2.76091014
H       -0.67663019       3.59122476       1.37131290
H       -3.07602145       0.16810428       2.38457149
H       -5.68993863       1.48435225       3.43417015
H       -5.03847794       2.01881971       4.98838168
H       -2.61397306       0.24426927       5.09592233
H       -3.37425907      -1.16846999       5.75468656
H       -3.76688379       0.42953099       6.42979199
H       -6.72517347      -0.38347629       4.35692329
H       -6.25478173       0.26409999       5.90676917
H       -7.90789309      -2.25063554       5.57066058
H       -5.75490738      -3.93826030       5.34130065
H       -4.73807025      -2.87836932       4.30589042
H       -8.43147976      -3.25447952       1.88952746
H       -8.57316559      -5.05522272       0.20440735
H       -5.14574563      -6.96822698       1.97973400
H       -4.99420795      -5.19076471       3.64050418
C        5.19418874      -4.96931248       3.70177073
O        4.17888491      -4.14866845       4.26404022
C        3.40259636      -3.41516283       3.40358932
C        3.48066614      -3.49917761       2.00877940
C        2.66901070      -2.69637538       1.20336919
C        1.79201897      -1.79201897       1.79201897
C        1.70403107      -1.69402679       3.17845718
C        2.47897362      -2.53026901       4.00370735
C        2.38162009      -2.43260588       5.51917309
N        1.04531664      -2.06663330       6.07257627
C        0.06160249      -3.11548393       5.77012381
C        1.20244310      -1.88457844       7.53759461
C       -0.06773869      -1.59742706       8.36913341
H       -0.76023116      -2.44216405       8.28903811
O        0.30262858      -1.52629533       9.75919942
C       -0.80471898      -0.30855385       7.98523699
O        0.03924821       0.81789701       8.25969548
C       -0.52450068       2.05667618       8.09630573
C        0.33440236       3.13138884       8.35090145
C       -0.11713022       4.44726019       8.22752289
C       -1.43421498       4.69119348       7.85085192
Br      -2.05407625       6.46912225       7.68268763
C       -2.30059857       3.63008914       7.59538344
C       -1.84349193       2.31417877       7.71637409
H        5.75085927      -5.42565419       4.52713252
H        5.90324161      -4.37897639       3.11090805
H        4.75938267      -5.77974275       3.10703477
H        4.16229923      -4.18274307       1.51334953
H        2.73722171      -2.77991897       0.12202718
H        1.01962919      -0.97883600       3.63023203
H        3.11497579      -1.67394341       5.81954183
H        2.69078735      -3.38351667       5.97137532
H       -0.02970163      -3.28872465       4.69514164
H       -0.93806741      -2.80681009       6.09173296
H        0.30827791      -4.06551299       6.25241587
H        1.91361091      -1.06777249       7.71723708
H        1.67623070      -2.77690345       7.97251674
H        0.69920549      -0.64285172       9.88586092
H       -1.70088638      -0.24457175       8.61426236
H       -1.08627915      -0.32440556       6.92746495
H        1.36354564       2.94206328       8.64504533
H        0.56540388       5.26964302       8.42658936
H       -3.33014813       3.81432819       7.30172897
H       -2.54776195       1.51513414       7.50684351
C       -0.00445707       0.01189536      -1.78238275
H       -0.66409135       0.67374010      -2.43557963
H        0.65740317      -0.63156657      -2.45157240
C       -0.90989263      -0.90692880      -0.91072765
C        0.90977584       0.90977584      -0.90977584
C       -0.00465871       1.77757030       0.00794375
H       -0.66225468       2.44313916      -0.64384735
H        0.64322798       2.43503045       0.67728295
C       -1.78241447       0.00034974      -0.00472694
H       -2.45427497      -0.65498947       0.64260836
H       -2.43311707       0.67328779      -0.65473579
C       -0.91132561       0.90220522       0.91563759
C       -0.01476271      -0.02253852       1.78660255
H       -0.67934791      -0.69751639       2.42135241
H        0.63392994       0.61504881       2.47327442
C        0.01484550      -1.77751727      -0.01636693
H        0.67870853      -2.42144646      -0.68295456
H       -0.62264859      -2.45592969       0.64226336
C        1.78714474       0.01002794       0.00389507
H        2.44202412       0.67113390       0.66197326
H        2.45385902      -0.65136977      -0.64189061
C        0.91606151      -0.90478549       0.90901405
