137
Properties=species:S:1:pos:R:3 pbc="F F F"
C        0.00000000       0.00000000       0.00000000
C        0.87078148       0.87078148      -0.87078148
C        0.64382174       2.23806488      -1.10821450
C        1.64282881       2.69756287      -1.96477962
C        1.84793804       4.02370112      -2.52991011
O        2.75200136       4.30337818      -3.31846457
N        0.94651898       4.98811934      -2.11968137
N        1.07858348       6.33844289      -2.63096956
S        0.13240385       7.55457807      -1.95392260
O       -1.22297640       7.38273128      -2.42910989
O        0.40805152       7.55833229      -0.53206557
C        0.85140923       9.01929511      -2.67079408
C        1.85663496       9.65771508      -1.92507074
C        2.44350011      10.82352974      -2.40689214
Br       3.80297083      11.67363862      -1.40655533
C        2.03397737      11.36883431      -3.61836759
C        1.03198374      10.73804279      -4.35928874
C        0.42988558       9.54999911      -3.90604050
C       -0.64548181       8.93275845      -4.75692197
N        2.46167614       1.60302075      -2.21347620
C        3.65287759       1.60200636      -3.03939801
C        1.98937821       0.49225649      -1.55946303
H       -0.17369751       2.81761991      -0.70051785
H        0.22160184       4.81548671      -1.43064003
H        1.87027160       6.55816642      -3.24356777
H        2.17827560       9.24891805      -0.96894034
H        2.48274269      12.28500329      -3.99498421
H        0.72111560      11.18759379      -5.30185933
H       -0.45263876       7.86763743      -4.91616078
H       -0.68091581       9.39511232      -5.74995429
H       -1.62721813       9.07818301      -4.29665085
H        4.11978152       0.61391056      -3.00205296
H        4.35078451       2.34492447      -2.64577626
H        3.36184183       1.82963488      -4.06754672
H        2.48671729      -0.46582269      -1.63827737
C       -0.87078148      -0.87078148      -0.87078148
C       -1.59163295      -0.41121124      -1.98725693
C       -2.28332484      -1.49377040      -2.52807606
C       -3.18547206      -1.54631173      -3.66976547
O       -3.77892505      -2.56328342      -4.03163564
N       -3.34556501      -0.35546622      -4.35328846
N       -4.22414566      -0.31777991      -5.50607035
S       -4.23413487       1.06241636      -6.46918600
O       -4.93902410       2.10231405      -5.75215472
O       -2.87052927       1.27879612      -6.90671623
C       -5.19619761       0.52428487      -7.86958567
C       -4.48218850       0.00571394      -8.96294622
C       -5.16335806      -0.40675770     -10.10380623
Br      -4.20083303      -1.11397465     -11.56835710
C       -6.54761355      -0.29912102     -10.17444469
C       -7.25896343       0.21991972      -9.09027156
C       -6.60025991       0.63154140      -7.91720668
C       -7.43419019       1.18472297      -6.79473139
N       -1.95294123      -2.58759067      -1.73764119
C       -2.41891483      -3.94683195      -1.92853518
C       -1.10495659      -2.20985072      -0.72629042
H       -1.60731874       0.60920935      -2.34633086
H       -2.83485928       0.49110232      -4.12397162
H       -4.66439350      -1.18882096      -5.81879133
H       -3.39716140      -0.07259372      -8.92637887
H       -7.08406968      -0.61125140     -11.06740911
H       -8.34239669       0.30269320      -9.17086524
H       -7.18304282       0.69898162      -5.84709825
H       -8.50135624       1.00252282      -6.96531738
H       -7.29891434       2.26746584      -6.71616722
H       -1.94736531      -4.59960863      -1.18877111
H       -2.13498027      -4.27523870      -2.93126627
H       -3.50278094      -3.96390264      -1.79233985
H       -0.74197599      -2.92132863       0.00413264
C       -0.87078148       0.87078148       0.87078148
C       -2.20544755       0.58000711       1.20464646
C       -2.68239556       1.61315452       2.00962122
C       -4.00018511       1.80192983       2.59943432
O       -4.32156024       2.78757388       3.26470998
N       -4.90363074       0.78122011       2.36946884
N       -6.23964192       0.88528301       2.92307100
S       -7.25433385      -0.45501300       2.84158368
O       -7.70576831      -0.59096628       1.47406273
O       -6.55841702      -1.54824615       3.48827851
C       -8.60820228       0.04712115       3.88617498
C       -8.53765108      -0.33472929       5.23649898
C       -9.57235141      -0.00438453       6.10595512
Br      -9.46917016      -0.50999107       7.92398568
C      -10.68332141       0.69279646       5.64506139
C      -10.75735181       1.06976113       4.30220233
C       -9.72054379       0.76355001       3.40183140
C       -9.87520665       1.19838362       1.97060833
N       -1.62142544       2.49768425       2.15906340
C       -1.63696123       3.72126553       2.93605521
C       -0.52558287       2.05458004       1.46093482
H       -2.75766724      -0.29099272       0.87776573
H       -4.66522496      -0.07237978       1.87488341
H       -6.46562879       1.68922512       3.51715188
H       -7.67968686      -0.89186782       5.60831495
H      -11.49915323       0.94525578       6.31832118
H      -11.64104702       1.60828026       3.96124144
H       -8.98086659       1.72535339       1.62493947
H      -10.71237708       1.89626451       1.85550922
H      -10.08173364       0.33619199       1.32969010
H       -0.64358937       4.17784703       2.91430865
H       -1.89757196       3.47555570       3.96835758
H       -2.36301994       4.40539019       2.49061329
H        0.40035328       2.61480579       1.44471946
C        0.87078148      -0.87078148       0.87078148
C        1.35224303      -2.13864587       0.49921221
C        2.10682989      -2.63969055       1.55865086
C        2.79942881      -3.91389723       1.68822323
O        3.40491507      -4.26815762       2.70077142
N        2.74376751      -4.73386209       0.57669009
N        3.40942963      -6.02129256       0.61727374
S        3.53891001      -6.90884261      -0.80684810
O        2.23656682      -7.46117474      -1.10887679
O        4.20878637      -6.06040936      -1.77074635
C        4.65909418      -8.20924710      -0.32684288
C        6.02458343      -7.98754363      -0.57270629
C        6.95581686      -8.97026455      -0.25215942
Br       8.79276616      -8.66444231      -0.57404370
C        6.54319824     -10.17723691       0.30074411
C        5.18585928     -10.40129191       0.54216408
C        4.22169357      -9.42139974       0.24283188
C        2.77931684      -9.73844924       0.52643253
N        2.07951086      -1.65759921       2.54106302
C        2.74666384      -1.72126840       3.82634972
C        1.32214498      -0.58894160       2.13001114
H        1.15461923      -2.63261569      -0.44279467
H        2.30404805      -4.45965390      -0.29597336
H        3.95093037      -6.26998172       1.45109369
H        6.36059613      -7.05231805      -1.01678020
H        7.26595457     -10.95238605       0.54438957
H        4.88446534     -11.35764316       0.96846023
H        2.30723966      -8.93053097       1.09338882
H        2.68390618     -10.64424274       1.13600188
H        2.23698165      -9.91730730      -0.40667322
H        2.59261479      -0.78071866       4.36241159
H        3.81613920      -1.86811005       3.65723599
H        2.31433841      -2.54390477       4.40078026
H        1.17102337       0.27545999       2.76360859
