125
Properties=species:S:1:pos:R:3 pbc="F F F"
C        0.00000000       0.00000000       0.00000000
C        0.88185359       0.88185359      -0.88185359
C        2.04083862       1.45032565      -0.35079933
C        2.85136486       2.25375740      -1.15602959
C        2.49384949       2.47154496      -2.49038772
C        1.32529745       1.91410689      -3.01958083
C        0.51893361       1.11233386      -2.21020027
S        3.52062935       3.48361782      -3.52192453
O        2.71179100       4.03242041      -4.58789932
O        4.32144448       4.34042430      -2.67279078
N        4.54378901       2.33226276      -4.19110276
N        5.58262678       2.72977434      -5.11364249
C        6.53792646       1.79575381      -5.46567550
O        6.50861900       0.65458781      -5.00167283
C        7.56318866       2.27179999      -6.37655651
C        7.54944617       3.37209150      -7.22996909
C        8.77895063       3.40140316      -7.91222568
Br       9.25382665       4.69015679      -9.18316218
C        9.53498263       2.34255331      -7.48953899
N        8.79088701       1.65350642      -6.56513600
C        9.25698653       0.46990937      -5.87039490
H        2.31835982       1.27606315       0.68632858
H        3.75112072       2.70146720      -0.73795353
H        1.03857954       2.09786883      -4.05351917
H       -0.38802707       0.67482227      -2.62076573
H        4.54368407       1.36771853      -3.84398823
H        5.63074074       3.70486508      -5.39402724
H        6.73208485       4.06893139      -7.36354168
H       10.52973262       2.02061980      -7.76922865
H        9.19091988       0.64895330      -4.79422623
H       10.29801362       0.27553862      -6.14162609
H        8.63525878      -0.37606140      -6.17252451
C       -0.88185359      -0.88185359      -0.88185359
C       -0.29457120      -1.69382655      -1.85356585
C       -1.09815284      -2.50439779      -2.65860122
C       -2.48434950      -2.49769402      -2.47373866
C       -3.07505547      -1.67386905      -1.51006066
C       -2.26715951      -0.86566681      -0.70864142
S       -3.51144845      -3.52898542      -3.48573783
O       -4.83706566      -2.95338351      -3.54166157
O       -2.78501289      -3.85443651      -4.69521016
N       -3.59301682      -4.92232692      -2.55181079
N       -4.34302518      -6.06700087      -3.01601756
C       -4.20368810      -7.26090206      -2.33476561
O       -3.45568163      -7.34963965      -1.35955835
C       -4.96777618      -8.37264805      -2.87112094
C       -6.07776419      -8.36181690      -3.71192567
C       -6.45851199      -9.69683909      -3.93722839
Br      -7.90635547     -10.21948139      -5.00130876
C       -5.60266634     -10.51382253      -3.25058607
N       -4.70541043      -9.70721274      -2.59690625
C       -3.62273199     -10.20361279      -1.77094604
H        0.78417139      -1.69978011      -1.99248567
H       -0.63859480      -3.13174900      -3.42019765
H       -4.15546852      -1.65636815      -1.37813087
H       -2.72411320      -0.22726685       0.04381914
H       -2.99760568      -5.03305317      -1.72473198
H       -4.86862708      -5.98015706      -3.88084893
H       -6.57483933      -7.48447677      -4.10524181
H       -5.55901929     -11.59212727      -3.16843451
H       -2.68087701      -9.80099934      -2.15222306
H       -3.59699874     -11.29527282      -1.82290677
H       -3.80199890      -9.88970981      -0.74001319
C       -0.88185359       0.88185359       0.88185359
C       -0.77564835       0.79533923       2.27097602
C       -1.57780441       1.60351046       3.07983698
C       -2.47353601       2.49752511       2.48472105
C       -2.59098796       2.57486516       1.09313204
C       -1.78710804       1.76461185       0.28974786
S       -3.49012525       3.53264251       3.50340393
O       -4.67503014       3.89809151       2.75898909
O       -3.58712463       2.93080294       4.81673199
N       -2.52537947       4.90029536       3.64147970
N       -2.97251252       6.03073769       4.42279339
C       -2.06605549       7.03692144       4.69637883
O       -0.90485232       6.97062401       4.28940330
C       -2.57786734       8.12820945       5.50546838
C       -3.89465083       8.51412562       5.74273030
C       -3.86682954       9.63815883       6.58759111
Br      -5.38771570      10.54156701       7.19786291
C       -2.56176558       9.93966313       6.86564623
N       -1.78186277       9.02784142       6.19982524
C       -0.33377491       9.00567321       6.25784269
H       -0.07535771       0.10177734       2.73095934
H       -1.49807960       1.52958678       4.16287508
H       -3.30052230       3.25875823       0.63068701
H       -1.87410921       1.82593679      -0.79248508
H       -1.55712991       4.89335015       3.30491077
H       -3.90508371       6.00035771       4.82419165
H       -4.78212305       8.04868433       5.33375053
H       -2.12495797      10.72234786       7.47227524
H       -0.01395192       8.01866489       6.60148259
H        0.01337618       9.76465759       6.96389692
H        0.05591360       9.22627303       5.26136247
C        0.88185359      -0.88185359       0.88185359
C        2.24717522      -0.98455115       0.61023722
C        3.05676712      -1.78691163       1.41747310
C        2.48791260      -2.47215288       2.49571669
C        1.11748206      -2.38128700       2.76021611
C        0.31318831      -1.57826459       1.95001485
S        3.50917686      -3.48674881       3.53024603
O        2.68324693      -4.50022772       4.14863608
O        4.70211382      -3.84199626       2.79054948
N        3.95728629      -2.38969112       4.72017713
N        4.82923152      -2.79962936       5.79718272
C        5.35215315      -1.82363637       6.62356625
O        5.08651283      -0.63375001       6.44461680
C        6.23785549      -2.30586676       7.66782291
C        6.36274888      -3.58509202       8.20366585
C        7.35488765      -3.53829261       9.19939922
Br       7.89407964      -5.00677217      10.22629381
C        7.83185568      -2.25847590       9.27674336
N        7.14536237      -1.51099530       8.35317176
C        7.37813068      -0.09958992       8.11957020
H        2.68748234      -0.44741146      -0.22679941
H        4.11995366      -1.87080413       1.19978366
H        0.67224841      -2.92835275       3.58936638
H       -0.75188699      -1.50318949       2.15625843
H        3.74534922      -1.39194555       4.61809606
H        5.10397836      -3.77610485       5.84954986
H        5.78560907      -4.45649209       7.92245675
H        8.59228630      -1.81846617       9.90882860
H        7.61568189       0.04403278       7.06245030
H        8.22179205       0.23537710       8.72876338
H        6.47869037       0.45125970       8.40429123
