177
Properties=species:S:1:pos:R:3 pbc="F F F"
C        0.00000000       0.00000000       0.00000000
C        0.88303510       0.88303510      -0.88303510
C        1.37688076       0.37327359      -2.08463046
C        2.18257759       1.17349881      -2.88731701
C        2.47793888       2.47624964      -2.48740178
C        1.97982461       3.00279733      -1.28248943
C        2.32098129       4.36413632      -0.82568538
H        2.37077536       4.50744939       0.25039847
N        2.70092234       5.25355942      -1.74904283
N        3.40949916       6.34109475      -1.20516787
C        3.96250219       7.35978370      -1.94881512
O        4.50861844       8.30525117      -1.37821140
C        3.94739883       7.36514612      -3.43774433
H        3.84791956       8.39308420      -3.78413326
C        3.40556537       6.36458823      -4.42099263
C        4.89852686       6.50879257      -4.24854455
H        5.41670917       7.05196972      -5.03545028
C        5.70209189       5.32515043      -3.81392487
O        6.55462761       4.90980429      -4.60009317
N        5.43010548       4.75918801      -2.58539638
N        6.08831777       3.61731448      -2.18884664
C        5.65044031       3.12414450      -1.07468767
C        6.16622764       1.85726284      -0.52219496
C        5.44470966       1.22931498       0.49903345
C        5.90205907       0.02241017       1.03117165
C        7.08041793      -0.55010888       0.54985669
C        7.79450707       0.08518268      -0.47088936
C        7.34156341       1.28626488      -1.01636912
C        1.18543403       2.18414096      -0.47629191
H        1.14291714      -0.63725598      -2.40225839
H        2.58810239       0.79713686      -3.82178051
H        3.12074856       3.08504148      -3.12098952
H        3.42918191       6.45764989      -0.19903325
H        2.96154622       6.74891021      -5.33248925
H        2.93061298       5.45230781      -4.09291023
H        4.57921734       5.05513413      -2.07189979
H        4.86116513       3.61942570      -0.48644520
H        4.51687422       1.66429809       0.86550445
H        5.33576699      -0.47370690       1.81595829
H        7.43187416      -1.48842222       0.96875711
H        7.88967072       1.77958517      -1.81359596
H        0.79566197       2.57444486       0.45972644
C        9.01149696      -0.50933600      -0.95985066
C       10.03072599      -1.00724539      -1.36935575
Br      11.67873313      -1.81232277      -2.03149084
C       -0.88303510      -0.88303510      -0.88303510
C       -0.98052840      -0.60676481      -2.24749160
C       -1.78543898      -1.40651971      -3.05143472
C       -2.47561638      -2.47874197      -2.48723194
C       -2.37900770      -2.77090990      -1.11519379
C       -3.13877702      -3.87497267      -0.49705331
H       -3.43762317      -3.72752087       0.53731775
N       -3.53927196      -4.87496870      -1.28928393
N       -4.59467550      -5.62429481      -0.73679146
C       -5.22771585      -6.66637448      -1.37701068
O       -6.09867101      -7.30698667      -0.78642333
C       -4.91681103      -7.05235882      -2.78111942
H       -5.01423826      -8.13294636      -2.87795240
C       -3.95334615      -6.46348429      -3.77431579
C       -5.43728716      -6.25740189      -3.96117493
H       -5.90803465      -6.86743896      -4.72865557
C       -5.98429574      -4.86616881      -3.99070264
O       -6.52832748      -4.50202877      -5.03416882
N       -5.82912751      -4.07321632      -2.87234604
N       -6.24156675      -2.76026094      -2.89265121
C       -5.92499750      -2.09841977      -1.82585520
C       -6.20213744      -0.65609062      -1.68745738
C       -5.56434713       0.05294525      -0.66358930
C       -5.79733419       1.42165578      -0.51761919
C       -6.67082026       2.07710965      -1.38674176
C       -7.30354080       1.35975997      -2.40679828
C       -7.07057528      -0.00594482      -2.56767731
C       -1.58082138      -1.95055935      -0.31448617
H       -0.43908628       0.22209195      -2.69092523
H       -1.88666829      -1.20636689      -4.11398458
H       -3.11163795      -3.08701911      -3.12812249
H       -4.84423672      -5.47530027       0.23367193
H       -3.44828469      -7.14737449      -4.44728651
H       -3.33800834      -5.61195154      -3.52587114
H       -5.20178281      -4.39323860      -2.11122985
H       -5.42150826      -2.57577768      -0.96975008
H       -4.87004877      -0.45136552       0.00574643
H       -5.29257876       1.97699276       0.26948419
H       -6.84910382       3.14171315      -1.26730416
H       -7.55492252      -0.56543168      -3.36249764
H       -1.49834893      -2.16035867       0.74832721
C       -8.20647080       2.04182314      -3.29736396
C       -8.96267468       2.61305105      -4.04321272
Br     -10.18539239       3.53667827      -5.24918708
C       -0.88303510       0.88303510       0.88303510
C       -1.26720880       2.14366489       0.42391111
C       -2.06738745       2.94932177       1.22668418
C       -2.48367934       2.48431179       2.47359917
C       -2.10885524       1.21303458       2.94322156
C       -2.50524902       0.72649740       4.27905658
H       -1.80602624       0.05359578       4.76820427
N       -3.58748218       1.27182369       4.84421872
N       -3.63175682       1.08553058       6.23847437
C       -4.60744851       1.60165217       7.06200033
O       -4.59901835       1.32955077       8.26351190
C       -5.68227272       2.50389307       6.56412349
H       -6.59488483       2.30549150       7.12476069
C       -5.95101883       3.05082104       5.18930636
C       -5.42232343       3.96659432       6.26694623
H       -6.14835230       4.64162001       6.71415686
C       -4.11797810       4.66662469       6.05656439
O       -4.14395779       5.89771317       6.02285411
N       -2.98018568       3.90414393       5.89036026
N       -1.77684680       4.50963355       5.60799854
C       -0.82056940       3.67451989       5.35418318
C        0.52417621       4.12351844       4.94634321
C        1.40288796       3.18690459       4.39097455
C        2.67687490       3.58671347       3.98345902
C        3.07359579       4.91586539       4.13818276
C        2.18826046       5.84443271       4.69440686
C        0.90975151       5.45790282       5.09604610
C       -1.29109776       0.41941503       2.13535411
H       -0.95121511       2.50544813      -0.54874369
H       -2.37138650       3.93843476       0.89719850
H       -3.09898189       3.13270612       3.09509154
H       -2.97615746       0.44288812       6.66681947
H       -6.98692085       3.16570283       4.89032200
H       -5.31256620       2.81074786       4.35251696
H       -3.07561627       2.88126108       5.74937392
H       -0.96455751       2.58391866       5.41855986
H        1.09126493       2.15325550       4.25367728
H        3.35655954       2.86296399       3.53969735
H        4.06641814       5.22056584       3.82054713
H        0.21685993       6.17719490       5.52251688
H       -0.98934127      -0.56398051       2.48501962
C        2.60579786       7.21323051       4.85457897
C        2.95548543       8.35959867       4.98872311
Br       3.52090066      10.21317902       5.20562284
C        0.88303510      -0.88303510       0.88303510
C        1.32120840      -2.11591367       0.39766273
C        2.12148156      -2.92164787       1.20026398
C        2.48401095      -2.48398978       2.47358957
C        2.05451419      -1.24052014       2.97007705
C        2.39373136      -0.78480592       4.33226570
H        1.65863062      -0.14976734       4.81942834
N        3.47482223      -1.31417580       4.91452657
N        3.47003519      -1.17115168       6.31457491
C        4.43577581      -1.68287492       7.15245029
O        4.38155532      -1.44961025       8.36091544
C        5.55368938      -2.53514334       6.66145656
H        6.44175388      -2.32661524       7.25676790
C        5.88208610      -3.02939505       5.27966509
C        5.34981384      -3.99495900       6.31109114
H        6.08283124      -4.66114538       6.76015256
C        4.07557403      -4.72789191       6.03770124
O        4.14182062      -5.95588897       5.96681548
N        2.91972850      -3.99601835       5.85894302
N        1.74560525      -4.62908799       5.51978565
C        0.77148691      -3.81625155       5.26153401
C       -0.54501614      -4.29335284       4.79734875
C       -1.43556435      -3.36710528       4.24345025
C       -2.68295685      -3.79288951       3.78336493
C       -3.04168952      -5.13792139       3.88422049
C       -2.14480724      -6.05595298       4.43943337
C       -0.89229226      -5.64310758       4.89338209
C        1.23722073      -0.44719211       2.16145406
H        1.04711328      -2.45609215      -0.59528588
H        2.46689702      -3.88988780       0.85023495
H        3.10017733      -3.13254883       3.09405340
H        2.78135822      -0.56305600       6.74145083
H        6.92986719      -3.10262466       5.01045384
H        5.26246308      -2.78260543       4.43076250
H        2.98680833      -2.96670052       5.75274242
H        0.87857219      -2.72432944       5.36413439
H       -1.15296249      -2.32046973       4.14816062
H       -3.37133574      -3.07670545       3.34073210
H       -4.01400406      -5.46286947       3.52582942
H       -0.19032732      -6.35387929       5.31929988
H        0.89360441       0.51476190       2.53153788
C       -2.52324020      -7.44140853       4.54384329
C       -2.84017780      -8.60172755       4.63128659
Br      -3.35263909     -10.47786527       4.77267502
