178
Properties=species:S:1:pos:R:3 pbc="F F F"
C        1.79215463       1.79215463      -1.79215463
C        1.57540821       3.18440198      -1.81272968
C        2.37023081       4.01421102      -2.61132056
C        3.36082839       3.41129959      -3.36484979
C        4.33840780       3.99187767      -4.27919786
O        4.35497351       5.19210566      -4.48410830
N        5.10943714       2.95444074      -4.77109002
C        6.19422165       3.10039789      -5.69545554
C        6.60575695       4.35827412      -6.15633749
C        7.67560792       4.50570528      -7.05434848
C        8.36615807       3.39529966      -7.55259912
C        7.98502720       2.13228113      -7.07585146
Cl       8.90493275       0.69567167      -7.39313361
C        6.91622422       1.99486050      -6.16964450
N        9.41237076       3.58769727      -8.48993505
C       10.30386573       4.63501097      -8.45842621
O       10.42633354       5.55568246      -7.67040726
C       11.19221314       4.46610253      -9.60508212
C       12.29180137       5.20504086      -9.99824749
C       12.94403666       4.79310275     -11.16239186
Br      14.46169469       5.74871657     -11.76323453
C       12.49322397       3.67958344     -11.90069577
C       11.37453243       2.95256839     -11.47867440
C       10.75085118       3.36912052     -10.31811789
C        9.56855511       2.84476599      -9.63943553
O        8.85778612       1.99633920     -10.14763001
C        4.67766431       1.75464834      -4.23569505
O        5.05751538       0.60775936      -4.38592174
C        3.56614630       2.05109759      -3.33979670
C        2.79794436       1.20450664      -2.56163614
H        0.78665443       3.62516840      -1.20554762
H        2.21853175       5.08905932      -2.63966689
H        6.11941377       5.27655738      -5.83815866
H        7.93007069       5.51420675      -7.37751638
H        6.68919729       0.98728009      -5.83371987
H       12.62354292       6.06143873      -9.42013507
H       13.01265875       3.37768267     -12.80858791
H       11.00812224       2.09659456     -12.03726041
H        2.97985607       0.13445542      -2.55755642
C       -1.79215463      -1.79215463      -1.79215463
C       -1.53010492      -3.17467739      -1.86775755
C       -2.32389459      -4.00432123      -2.66754657
C       -3.35928966      -3.41110828      -3.36657983
C       -4.34788648      -3.99424112      -4.26735572
O       -4.33159752      -5.18685805      -4.51273189
N       -5.16940954      -2.96814617      -4.69741218
C       -6.27987372      -3.12050663      -5.58969472
C       -6.66498485      -4.37577573      -6.07960799
C       -7.75957781      -4.52997090      -6.94611297
C       -8.50335664      -3.42801345      -7.38268675
C       -8.14824076      -2.16918005      -6.87573898
Cl      -9.12573142      -0.75528713      -7.11271947
C       -7.05408030      -2.02529228      -6.00135664
N       -9.57419586      -3.62500466      -8.29080255
C      -10.42879112      -4.70280756      -8.26570422
O      -10.49344582      -5.65281797      -7.50615948
C      -11.36114422      -4.52652536      -9.37572821
C      -12.44843634      -5.28934729      -9.75730608
C      -13.15362311      -4.86161732     -10.88429085
Br     -14.65844553      -5.84833539     -11.46686487
C      -12.76569774      -3.70934655     -11.59845890
C      -11.65793624      -2.95873646     -11.18910252
C      -10.98124088      -3.39193734     -10.06491136
C       -9.79439292      -2.85009779      -9.40826592
O       -9.13009201      -1.96132761      -9.91033571
C       -4.75959324      -1.77267471      -4.13573977
O       -5.18227921      -0.63516054      -4.23375674
C       -3.60870530      -2.06035024      -3.28798506
C       -2.84276561      -1.21417979      -2.50714175
H       -0.70674003      -3.60800536      -1.30262506
H       -2.13763074      -5.07178519      -2.73784203
H       -6.13775176      -5.28686582      -5.80951223
H       -7.99134852      -5.53532758      -7.29511772
H       -6.84924501      -1.02222242      -5.63872981
H      -12.73147530      -6.17537579      -9.19826564
H      -13.32577267      -3.39547804     -12.47767862
H      -11.33958309      -2.07258878     -11.72980533
H       -3.05988220      -0.15173952      -2.46024620
C       -1.79215463       1.79215463       1.79215463
C       -2.92802813       1.23330160       2.41121014
C       -3.75147278       2.01963152       3.22465809
C       -3.40131583       3.34750600       3.38815595
C       -4.04249930       4.40595756       4.16102647
O       -5.06192979       4.18126615       4.78799153
N       -3.28618875       5.55212340       3.99665575
C       -3.56928771       6.81991068       4.60087668
C       -4.64948757       6.99435369       5.47652730
C       -4.92359437       8.23324131       6.07882600
C       -4.14175177       9.36222766       5.81007741
C       -3.03879948       9.19469000       4.95967032
Cl      -1.83298904      10.42257498       4.73817400
C       -2.76728123       7.94694648       4.36650151
N       -4.47987148      10.60289268       6.40723892
C       -4.96571257      10.74515566       7.68643467
O       -5.17590568       9.91955743       8.55696015
C       -5.20026353      12.17188140       7.89125285
C       -5.62610004      12.85366493       9.01532475
C       -5.76316638      14.23849461       8.89787028
Br      -6.33526670      15.24439023      10.39398886
C       -5.48526095      14.90272944       7.68551279
C       -5.05827536      14.18439877       6.56310108
C       -4.91747776      12.81698715       6.70362467
C       -4.51892922      11.80256723       5.73126019
O       -4.39545545      12.05917932       4.54712056
C       -2.21425007       5.29095925       3.16279839
O       -1.30811284       5.99207072       2.75101292
C       -2.29086596       3.88609446       2.78008017
C       -1.45767501       3.13577355       1.97063859
H       -3.17301085       0.18329304       2.26106656
H       -4.63039395       1.60648628       3.71037774
H       -5.32182860       6.17982392       5.73247729
H       -5.78783170       8.29519724       6.73876488
H       -1.88760768       7.89059911       3.73199046
H       -5.83885348      12.32652400       9.93973925
H       -5.60331999      15.98256077       7.61304857
H       -4.84600803      14.67695389       5.61901528
H       -0.58635408       3.58287199       1.50264185
C        1.79215463      -1.79215463       1.79215463
C        2.99067731      -1.26686285       2.31499970
C        3.81557029      -2.05385565       3.12633645
C        3.40349264      -3.34839426       3.38509086
C        4.02950716      -4.39834029       4.18163587
O        5.09417513      -4.19899952       4.73801281
N        3.20354687      -5.50618857       4.12523246
C        3.45144762      -6.75333869       4.78528876
C        4.56926838      -6.94180758       5.60929261
C        4.80967156      -8.15973513       6.26625499
C        3.95317129      -9.25468041       6.10620515
C        2.81375057      -9.07040382       5.30900540
Cl       1.53195335     -10.23687888       5.22490579
C        2.57693817      -7.84329955       4.66049149
N        4.25699145     -10.47835585       6.75465578
C        4.80738668     -10.57840857       8.01150765
O        5.11223054      -9.72004751       8.82014521
C        4.97515975     -12.00298875       8.28524928
C        5.42734049     -12.64585807       9.42189117
C        5.48161727     -14.04063398       9.37728002
Br       6.08339143     -14.99473146      10.89552289
C        5.09834584     -14.75288735       8.22226999
C        4.64711001     -14.07342947       7.08523573
C        4.58949507     -12.69454218       7.15405233
C        4.19142795     -11.71338409       6.14794460
O        3.98597464     -12.02667919       4.98910150
C        2.10110678      -5.22946879       3.33743214
O        1.13579727      -5.89852157       3.01687764
C        2.23205306      -3.85435413       2.87063340
C        1.39571075      -3.10247520       2.06590120
H        3.28352002      -0.24251092       2.09133951
H        4.74230295      -1.66625275       3.53870227
H        5.29871324      -6.15470142       5.78071515
H        5.70589724      -8.23537619       6.88052039
H        1.66648704      -7.77097044       4.07273977
H        5.72155994     -12.08221785      10.30133893
H        5.15291775     -15.84007629       8.20593529
H        4.35412689     -14.60369479       6.18415552
H        0.47572457      -3.52339557       1.67274778
C       -0.00445707       0.01189536      -1.78238275
H       -0.66409135       0.67374010      -2.43557963
H        0.65740317      -0.63156657      -2.45157240
C       -0.90989263      -0.90692880      -0.91072765
C        0.90977584       0.90977584      -0.90977584
C       -0.00465871       1.77757030       0.00794375
H       -0.66225468       2.44313916      -0.64384735
H        0.64322798       2.43503045       0.67728295
C       -1.78241447       0.00034974      -0.00472694
H       -2.45427497      -0.65498947       0.64260836
H       -2.43311707       0.67328779      -0.65473579
C       -0.91132561       0.90220522       0.91563759
C       -0.01476271      -0.02253852       1.78660255
H       -0.67934791      -0.69751639       2.42135241
H        0.63392994       0.61504881       2.47327442
C        0.01484550      -1.77751727      -0.01636693
H        0.67870853      -2.42144646      -0.68295456
H       -0.62264859      -2.45592969       0.64226336
C        1.78714474       0.01002794       0.00389507
H        2.44202412       0.67113390       0.66197326
H        2.45385902      -0.65136977      -0.64189061
C        0.91606151      -0.90478549       0.90901405
