186
Properties=species:S:1:pos:R:3 pbc="F F F"
C        1.79215463       1.79215463      -1.79215463
C        1.57540821       3.18440198      -1.81272968
C        2.37023081       4.01421102      -2.61132056
C        3.36082839       3.41129959      -3.36484979
C        4.33840780       3.99187767      -4.27919786
O        4.35497351       5.19210566      -4.48410830
N        5.10943714       2.95444074      -4.77109002
C        6.19422165       3.10039789      -5.69545554
C        6.60575695       4.35827412      -6.15633749
C        7.67560792       4.50570528      -7.05434848
C        8.36615807       3.39529966      -7.55259912
C        7.98502720       2.13228113      -7.07585146
Cl       8.90493275       0.69567167      -7.39313361
C        6.91622422       1.99486050      -6.16964450
N        9.41237076       3.58769727      -8.48993505
C       10.30386573       4.63501097      -8.45842621
O       10.42633354       5.55568246      -7.67040726
C       11.19221314       4.46610253      -9.60508212
C       12.29180137       5.20504086      -9.99824749
C       12.94403666       4.79310275     -11.16239186
C       12.49322397       3.67958344     -11.90069577
C       11.37453243       2.95256839     -11.47867440
C       10.75085118       3.36912052     -10.31811789
C        9.56855511       2.84476599      -9.63943553
O        8.85778612       1.99633920     -10.14763001
C        4.67766431       1.75464834      -4.23569505
O        5.05751538       0.60775936      -4.38592174
C        3.56614630       2.05109759      -3.33979670
C        2.79794436       1.20450664      -2.56163614
H        0.78665443       3.62516840      -1.20554762
H        2.21853175       5.08905932      -2.63966689
H        6.11941377       5.27655738      -5.83815866
H        7.93007069       5.51420675      -7.37751638
H        6.68919729       0.98728009      -5.83371987
H       12.62354292       6.06143873      -9.42013507
H       13.01265875       3.37768267     -12.80858791
H       11.00812224       2.09659456     -12.03726041
H        2.97985607       0.13445542      -2.55755642
C       14.09947524       5.52064021     -11.61983140
C       15.06715505       6.12995283     -12.00293703
Br      16.63181145       7.11515981     -12.62238642
C       -1.79215463      -1.79215463      -1.79215463
C       -1.62350869      -3.19078391      -1.75824726
C       -2.41942411      -4.02068319      -2.55565510
C       -3.36245252      -3.41138044      -3.36314480
C       -4.32832116      -3.99022087      -4.29094130
O       -4.37980869      -5.19562342      -4.45575536
N       -5.04570436      -2.94517871      -4.84408483
C       -6.10316213      -3.08664700      -5.80026594
C       -6.54254154      -4.34524847      -6.23257856
C       -7.58602254      -4.48777329      -7.16186585
C       -8.22026302      -3.37278109      -7.72101273
C       -7.81160749      -2.10746600      -7.27408630
Cl      -8.66965746      -0.65261784      -7.67146272
C       -6.76979836      -1.97461887      -6.33631199
N       -9.24037646      -3.56238683      -8.68723979
C      -10.16839774      -4.57733808      -8.65156708
O      -10.34936604      -5.46532815      -7.83772907
C      -11.01118358      -4.41867839      -9.83353582
C      -12.12199604      -5.13341234     -10.23968133
C      -12.71988536      -4.74057255     -11.43907336
C      -12.20590968      -3.66928937     -12.19830413
C      -11.07740415      -2.96610219     -11.76226887
C      -10.50807530      -3.36271375     -10.56730054
C       -9.33175182      -2.85514336      -9.86586145
O       -8.57511946      -2.04937589     -10.37725997
C       -4.59064641      -1.74267676      -4.33468455
O       -4.92500535      -0.58957747      -4.53661366
C       -3.52095146      -2.04498771      -3.39110142
C       -2.75035208      -1.19814175      -2.61559332
H       -0.87150367      -3.63643484      -1.10943194
H       -2.30442158      -5.10036628      -2.54247011
H       -6.09950361      -5.26774289      -5.86688330
H       -7.86445929      -5.49778344      -7.45955110
H       -6.51922704      -0.96415972      -6.02681049
H      -12.50267993      -5.95747251      -9.64496428
H      -12.68362350      -3.38189740     -13.13340844
H      -10.66276498      -2.14295271     -12.33625951
H       -2.89488149      -0.12307833      -2.65390810
C      -13.88391978      -5.44427840     -11.91174868
C      -14.85879860      -6.03363205     -12.30761425
Br     -16.43509520      -6.98656706     -12.94769541
C       -1.79215463       1.79215463       1.79215463
C       -2.86348516       1.21023502       2.49881968
C       -3.68544909       1.99613062       3.31418268
C       -3.39910121       3.34694778       3.39092878
C       -4.05595042       4.41131656       4.14221634
O       -5.02866341       4.16899159       4.83353246
N       -3.37149640       5.58400729       3.87946420
C       -3.69103713       6.86631361       4.43272434
C       -4.73309648       7.03226957       5.35500252
C       -5.04221850       8.28610955       5.90733362
C       -4.33669034       9.43737220       5.53999431
C       -3.27102690       9.28081287       4.64132002
Cl      -2.14558694      10.55480008       4.29335100
C       -2.96354736       8.01849885       4.09868300
N       -4.71000683      10.68945358       6.09054266
C       -5.13708232      10.87517574       7.38504484
O       -5.25817625      10.08779943       8.30644758
C       -5.43704043      12.29704922       7.52930813
C       -5.84108096      13.01555523       8.63845352
C       -6.05796686      14.38333315       8.45823127
C       -5.87808358      14.99491053       7.20050907
C       -5.47085392      14.24010471       6.09481659
C       -5.25000715      12.89112342       6.29695902
C       -4.84763615      11.84763313       5.35748735
O       -4.79848056      12.04635966       4.15691511
C       -2.33090213       5.33338698       3.00371860
O       -1.48576215       6.05660005       2.50883428
C       -2.35148029       3.90795358       2.69760673
C       -1.52152284       3.15867900       1.88388531
H       -3.05915936       0.14258933       2.41562176
H       -4.51512060       1.56544341       3.86669395
H       -5.34692672       6.19948747       5.68771561
H       -5.87384836       8.33930904       6.60863642
H       -2.11553076       7.97304052       3.42162596
H       -5.97798322      12.52857839       9.59855512
H       -6.05737939      16.06190179       7.07964815
H       -5.33358332      14.69151127       5.11688261
H       -0.70034910       3.62378990       1.34772892
C       -6.47544401      15.18595224       9.57855060
C       -6.82508113      15.85814572      10.51681805
Br      -7.39041478      16.94502574      12.03391715
C        1.79215463      -1.79215463       1.79215463
C        2.87801216      -1.21457340       2.47995430
C        3.70030851      -2.00054833       3.29490555
C        3.39959759      -3.34704696       3.39033322
C        4.05291800      -4.41029489       4.14627044
O        5.03615427      -4.17130981       4.82372339
N        3.35228337      -5.57797576       3.90470877
C        3.66360866      -6.85751407       4.46895235
C        4.71420669      -7.02493815       5.38122372
C        5.01542595      -8.27590514       5.94433058
C        4.29276582      -9.42310252       5.59818850
C        3.21873050      -9.26453687       4.70989242
Cl       2.07504646     -10.52942022       4.38927135
C        2.91936025      -8.00500609       4.15636288
N        4.65817075     -10.67306566       6.15876667
C        5.09789904     -10.84900826       7.45039560
O        5.23842321     -10.05269783       8.36130222
C        5.38338694     -12.27249751       7.60751333
C        5.79193693     -12.98298793       8.72016485
C        5.99126321     -14.35510830       8.55315976
C        5.79009826     -14.97877387       7.30463105
C        5.37880961     -14.23191280       6.19505281
C        5.17556113     -12.87829338       6.38423507
C        4.77429711     -11.84096079       5.43749873
O        4.70916614     -12.05267802       4.23991117
C        2.30464012      -5.32538874       3.03797885
O        1.44576850      -6.04443740       2.56099058
C        2.33783578      -3.90383740       2.71536742
C        1.50715152      -3.15436875       1.90256687
H        3.08478460      -0.15024530       2.38234056
H        4.54106436      -1.57315896       3.83303465
H        5.34118256      -6.19552275       5.69742449
H        5.85436914      -8.33067939       6.63674529
H        2.06422224      -7.95751032       3.48846468
H        5.94531250     -12.48678124       9.67302298
H        5.95592035     -16.04904510       7.19396388
H        5.22526407     -14.69275127       5.22396187
H        0.67469011      -3.61608959       1.38108822
C        6.41242458     -15.14972825       9.67779403
C        6.76514722     -15.81522245      10.61967523
Br       7.33546991     -16.89127030      12.14261747
C       -0.00445707       0.01189536      -1.78238275
H       -0.66409135       0.67374010      -2.43557963
H        0.65740317      -0.63156657      -2.45157240
C       -0.90989263      -0.90692880      -0.91072765
C        0.90977584       0.90977584      -0.90977584
C       -0.00465871       1.77757030       0.00794375
H       -0.66225468       2.44313916      -0.64384735
H        0.64322798       2.43503045       0.67728295
C       -1.78241447       0.00034974      -0.00472694
H       -2.45427497      -0.65498947       0.64260836
H       -2.43311707       0.67328779      -0.65473579
C       -0.91132561       0.90220522       0.91563759
C       -0.01476271      -0.02253852       1.78660255
H       -0.67934791      -0.69751639       2.42135241
H        0.63392994       0.61504881       2.47327442
C        0.01484550      -1.77751727      -0.01636693
H        0.67870853      -2.42144646      -0.68295456
H       -0.62264859      -2.45592969       0.64226336
C        1.78714474       0.01002794       0.00389507
H        2.44202412       0.67113390       0.66197326
H        2.45385902      -0.65136977      -0.64189061
C        0.91606151      -0.90478549       0.90901405
