165
Properties=species:S:1:pos:R:3 pbc="F F F"
C        0.00000000       0.00000000       0.00000000
C        0.88225060       0.88225060      -0.88225060
C        0.66550418       2.27449796      -0.90282565
C        1.46032678       3.10430700      -1.70141654
C        2.45092436       2.50139557      -2.45494577
C        3.42850377       3.08197365      -3.36929383
O        3.44506949       4.28220164      -3.57420427
N        4.19953311       2.04453672      -3.86118600
C        5.28431763       2.19049386      -4.78555151
C        5.69585293       3.44837010      -5.24643347
C        6.76570390       3.59580125      -6.14444446
C        7.45625405       2.48539563      -6.64269509
C        7.07512318       1.22237711      -6.16594743
Cl       7.99502872      -0.21423236      -6.48322958
C        6.00632020       1.08495647      -5.25974048
N        8.50246674       2.67779324      -7.58003103
C        9.39396170       3.72510695      -7.54852218
O        9.51642951       4.64577844      -6.76050324
C       10.28230911       3.55619851      -8.69517809
C       11.38189734       4.29513683      -9.08834347
C       12.03413264       3.88319873     -10.25248783
C       11.58331995       2.76967942     -10.99079175
C       10.46462841       2.04266437     -10.56877037
C        9.84094716       2.45921649      -9.40821386
C        8.65865108       1.93486197      -8.72953151
O        7.94788209       1.08643518      -9.23772599
C        3.76776029       0.84474432      -3.32579103
O        4.14761136      -0.30214467      -3.47601772
C        2.65624228       1.14119357      -2.42989267
C        1.88804034       0.29460262      -1.65173212
H       -0.12324960       2.71526438      -0.29564360
H        1.30862772       4.17915530      -1.72976287
H        5.20950975       4.36665335      -4.92825463
H        7.02016667       4.60430273      -6.46761235
H        5.77929326       0.07737607      -4.92381584
H       11.71363890       5.15153471      -8.51023105
H       12.10275472       2.46777865     -11.89868389
H       10.09821822       1.18669053     -11.12735638
H        2.06995205      -0.77544860      -1.64765240
C       13.18957121       4.61073619     -10.70992738
C       14.15725102       5.22004881     -11.09303300
Br      15.72190743       6.20525579     -11.71248239
C       -0.88225060      -0.88225060      -0.88225060
C       -1.50775679      -0.32144978      -2.01362123
C       -2.31967135      -1.10824271      -2.83813626
C       -2.47433904      -2.43878348      -2.49414318
C       -3.23999754      -3.49941273      -3.14036099
O       -3.88824895      -3.26829385      -4.14493259
N       -3.05347558      -4.65226719      -2.39951305
C       -3.62754934      -5.92915749      -2.70365618
C       -4.41584017      -6.12997901      -3.84483731
C       -4.97141710      -7.38297438      -4.15155813
C       -4.78361604      -8.48751842      -3.31321031
C       -3.97110143      -8.30853903      -2.18380726
Cl      -3.43353008      -9.63186366      -1.19863220
C       -3.41198748      -7.05051256      -1.88851711
N       -5.39786276      -9.72302452      -3.63940373
C       -5.54037197     -10.20851288      -4.91870598
O       -5.17792218      -9.75521465      -5.98957436
C       -6.23898350     -11.48613647      -4.80856575
C       -6.57626675     -12.40549282      -5.78361807
C       -7.25869554     -13.54879572      -5.36232793
C       -7.59081156     -13.74667287      -4.00630669
C       -7.23808584     -12.79593357      -3.04204374
C       -6.55285984     -11.67785912      -3.47765854
C       -6.07193075     -10.51504904      -2.73606477
O       -6.37714717     -10.32194630      -1.57294978
C       -2.22815080      -4.38852661      -1.32161823
O       -1.80491236      -5.09309633      -0.42347572
C       -1.86063394      -2.97907173      -1.38762285
C       -1.05280591      -2.22826360      -0.55330556
H       -1.36280871       0.73012758      -2.25497725
H       -2.80926671      -0.69392719      -3.71435200
H       -4.63051745      -5.32791164      -4.54598865
H       -5.58326759      -7.45945073      -5.04936343
H       -2.78183885      -6.99284794      -1.00579838
H       -6.31587761     -12.23610635      -6.82342069
H       -8.12772258     -14.64250180      -3.69899288
H       -7.49092617     -12.92707381      -1.99426515
H       -0.57818984      -2.67736077       0.31339476
C       -7.63273028     -14.54560949      -6.33189501
C       -7.94598436     -15.38044103      -7.14390744
Br      -8.45248973     -16.73029301      -8.45686287
C       -0.88225060       0.88225060       0.88225060
C       -0.38785114       2.12275443       1.33222222
C       -1.17625195       2.94956085       2.14023752
C       -2.44126967       2.49736574       2.46863028
C       -3.48606594       3.11638198       3.27732334
O       -3.30217441       4.20204472       3.79725626
N       -4.56574737       2.25214432       3.28736413
C       -5.80647896       2.49132259       3.96256145
C       -6.05112210       3.68548142       4.65405297
C       -7.27026670       3.92753851       5.30814440
C       -8.29184660       2.97133825       5.32115993
C       -8.07241261       1.78414034       4.60689478
Cl      -9.32853699       0.62417219       4.31131677
C       -6.84985170       1.55350214       3.94766331
N       -9.49010683       3.24062038       6.02956380
C      -10.09348580       4.47501153       6.09909350
O       -9.79427769       5.53971710       5.58871640
C      -11.27866889       4.31745559       6.93756122
C      -12.26010774       5.22973588       7.27553403
C      -13.28068416       4.77549373       8.11364131
C      -13.29958841       3.44999452       8.59420818
C      -12.28973536       2.54976770       8.23656009
C      -11.29592499       3.01545361       7.39699891
C      -10.11236369       2.34233034       6.86835053
O       -9.76756421       1.24255847       7.26192057
C       -4.26917350       1.12272348       2.54639866
O       -4.91125894       0.12076667       2.28945879
C       -2.91688726       1.28469247       2.02574879
C       -2.16265518       0.44515233       1.22656756
H        0.61301139       2.44751810       1.05315167
H       -0.81265674       3.90891879       2.49597036
H       -5.31161882       4.47961629       4.71318262
H       -7.38287046       4.87399470       5.83521660
H       -6.75924030       0.61820628       3.40303859
H      -12.22869394       6.24722517       6.89948554
H      -14.10147831       3.11685890       9.25088004
H      -12.28317691       1.52726715       8.60182107
H       -2.56024205      -0.50654293       0.88845672
C      -14.33464377       5.67880310       8.49678791
C      -15.21733494       6.43532470       8.81767319
Br     -16.64457191       7.65855614       9.33651755
C        0.88225060      -0.88225060       0.88225060
C        1.55771141      -1.97741975       0.30769663
C        2.37239316      -2.79992944       1.09372772
C        2.48003921      -2.49001234       2.43721415
C        3.23901689      -3.14107165       3.49968271
O        3.90740452      -4.13105080       3.26302008
N        3.01131315      -2.43006762       4.66387505
C        3.58273747      -2.73613077       5.94149477
C        4.48845373      -3.79221520       6.10998756
C        5.05860363      -4.08837517       7.35897081
C        4.72633545      -3.35472082       8.50328851
C        3.84483186      -2.27531319       8.34330267
Cl       3.54206327      -1.11997960       9.60198308
C        3.28418149      -1.98113647       7.08569919
N        5.29347589      -3.71505155       9.75176356
C        6.58309800      -4.16305583       9.92143701
O        7.48700096      -4.31621464       9.11949559
C        6.74867903      -4.43919595      11.34581074
C        7.86353562      -4.85075087      12.05109116
C        7.70526540      -5.03870449      13.42584930
C        6.46292326      -4.82367284      14.05719501
C        5.35088972      -4.40967051      13.31550291
C        5.53150229      -4.21782324      11.95905198
C        4.58006935      -3.81719755      10.92577765
O        3.38460106      -3.74160949      11.14583270
C        2.15048122      -1.37790438       4.40991004
O        1.68519723      -0.51023173       5.12605544
C        1.81707935      -1.41918630       2.99106287
C        1.00488133      -0.58803589       2.24145785
H        1.45066905      -2.19130599      -0.75431666
H        2.90111551      -3.64779035       0.66864003
H        4.79384937      -4.42762410       5.28294426
H        5.74519936      -4.93201356       7.41486883
H        2.62227446      -1.12143264       7.03677807
H        8.81152301      -5.01485854      11.54902310
H        6.35899202      -4.98076918      15.12945605
H        4.38440896      -4.24551826      13.78233792
H        0.49300244       0.25166055       2.70081395
C        8.83263621      -5.46233860      14.21525997
C        9.77680927      -5.81713216      14.87639140
Br      11.30345724      -6.39080335      15.94538502
