157
Properties=species:S:1:pos:R:3 pbc="F F F"
C        0.00000000       0.00000000       0.00000000
C        0.88225060       0.88225060      -0.88225060
C        0.66550418       2.27449796      -0.90282565
C        1.46032678       3.10430700      -1.70141654
C        2.45092436       2.50139557      -2.45494577
C        3.42850377       3.08197365      -3.36929383
O        3.44506949       4.28220164      -3.57420427
N        4.19953311       2.04453672      -3.86118600
C        5.28431763       2.19049386      -4.78555151
C        5.69585293       3.44837010      -5.24643347
C        6.76570390       3.59580125      -6.14444446
C        7.45625405       2.48539563      -6.64269509
C        7.07512318       1.22237711      -6.16594743
Cl       7.99502872      -0.21423236      -6.48322958
C        6.00632020       1.08495647      -5.25974048
N        8.50246674       2.67779324      -7.58003103
C        9.39396170       3.72510695      -7.54852218
O        9.51642951       4.64577844      -6.76050324
C       10.28230911       3.55619851      -8.69517809
C       11.38189734       4.29513683      -9.08834347
C       12.03413264       3.88319873     -10.25248783
Br      13.55179066       4.83881254     -10.85333051
C       11.58331995       2.76967942     -10.99079175
C       10.46462841       2.04266437     -10.56877037
C        9.84094716       2.45921649      -9.40821386
C        8.65865108       1.93486197      -8.72953151
O        7.94788209       1.08643518      -9.23772599
C        3.76776029       0.84474432      -3.32579103
O        4.14761136      -0.30214467      -3.47601772
C        2.65624228       1.14119357      -2.42989267
C        1.88804034       0.29460262      -1.65173212
H       -0.12324960       2.71526438      -0.29564360
H        1.30862772       4.17915530      -1.72976287
H        5.20950975       4.36665335      -4.92825463
H        7.02016667       4.60430273      -6.46761235
H        5.77929326       0.07737607      -4.92381584
H       11.71363890       5.15153471      -8.51023105
H       12.10275472       2.46777865     -11.89868389
H       10.09821822       1.18669053     -11.12735638
H        2.06995205      -0.77544860      -1.64765240
C       -0.88225060      -0.88225060      -0.88225060
C       -1.61771672      -0.29439788      -1.93071319
C       -2.43208828      -1.08049772      -2.75346432
C       -2.47795056      -2.43767705      -2.49163809
C       -3.21669930      -3.50462887      -3.15844308
O       -3.94519088      -3.25464563      -4.10163889
N       -2.90717289      -4.68695526      -2.51112767
C       -3.41812682      -5.97797681      -2.86425937
C       -4.26783600      -6.15888224      -3.96393826
C       -4.76207059      -7.42469030      -4.31918871
C       -4.44771398      -8.56503833      -3.57159246
C       -3.57329680      -8.40348196      -2.48666897
Cl      -2.88677076      -9.74721309      -1.63004210
C       -3.07663860      -7.13169613      -2.14268241
N       -5.00280157      -9.81618461      -3.94130482
C       -5.20080795     -10.22778873      -5.23899416
O       -4.94165501      -9.68361100      -6.29744518
C       -5.80752652     -11.55439481      -5.17176438
C       -6.15113163     -12.43060479      -6.18364123
C       -6.72912336     -13.64218798      -5.79850786
Br      -7.22153922     -14.89812160      -7.12427290
C       -6.95494039     -13.94815111      -4.44069961
C       -6.59869252     -13.03895709      -3.43841354
C       -6.01728373     -11.85139008      -3.83970371
C       -5.56204379     -10.70814637      -3.05285440
O       -5.79909998     -10.61071643      -1.86222684
C       -2.02890314      -4.43685493      -1.47253756
O       -1.50153632      -5.16675952      -0.65318857
C       -1.75723106      -3.00432682      -1.46577065
C       -0.94396984      -2.25495744      -0.63544780
H       -1.55678455       0.77783463      -2.10870847
H       -3.00554795      -0.64549506      -3.56650287
H       -4.58035618      -5.33025995      -4.59380160
H       -5.42746822      -7.48528638      -5.17932715
H       -2.39285089      -7.08762435      -1.30000993
H       -5.97340207     -12.17802512      -7.22397746
H       -7.41156091     -14.89617918      -4.16147716
H       -6.77079905     -13.25345129      -2.38801479
H       -0.38385670      -2.72500351       0.16670437
C       -0.88225060       0.88225060       0.88225060
C       -0.35066719       2.07071134       1.42144925
C       -1.13817659       2.89643051       2.23144322
C       -2.43989951       2.49584240       2.47152379
C       -3.49359219       3.12784878       3.25833028
O       -3.28316522       4.17478707       3.84352311
N       -4.61432954       2.32250144       3.16842485
C       -5.87545106       2.59274603       3.79216591
C       -6.09604136       3.76193718       4.53267796
C       -7.33437272       4.03497129       5.13660560
C       -8.40193865       3.13468440       5.04772172
C       -8.20493655       1.97491233       4.28359884
Cl      -9.50033676       0.89929954       3.86438965
C       -6.96235274       1.71334418       3.67532022
N       -9.62094612       3.43103929       5.70830560
C      -10.16440747       4.69055880       5.81262457
O       -9.78554068       5.76223718       5.37493334
C      -11.39868503       4.55398911       6.58101156
C      -12.34957043       5.49876667       6.91704055
C      -13.43455932       5.05761445       7.67764543
Br     -14.78226971       6.28887675       8.17278725
C      -13.54538857       3.71251136       8.08589117
C      -12.56451891       2.77924067       7.73230357
C      -11.50557324       3.23329458       6.96950968
C      -10.33101083       2.52592427       6.46610946
O      -10.06316894       1.39108364       6.81779068
C       -4.33607963       1.21761426       2.38460175
O       -5.01318409       0.26518148       2.04311884
C       -2.95172840       1.33378889       1.94181123
C       -2.19940335       0.49673312       1.13823861
H        0.67859644       2.35569898       1.21055584
H       -0.74618422       3.81614327       2.65521840
H       -5.32175452       4.51188342       4.67077980
H       -7.42701969       4.95839379       5.70666827
H       -6.89015096       0.80309668       3.08723753
H      -12.24725928       6.53076981       6.59737556
H      -14.39659729       3.38969029       8.68292967
H      -12.62864011       1.74077337       8.04285165
H       -2.62584393      -0.41442481       0.73073672
C        0.88225060      -0.88225060       0.88225060
C        1.38707278      -2.09158860       0.36416642
C        2.19801313      -2.91673301       1.15130418
C        2.47461042      -2.49396785       2.43868742
C        3.27558727      -3.11736841       3.48681559
O        3.81875009      -4.18983203       3.29289328
N        3.23940102      -2.27939674       4.58645806
C        3.90990249      -2.52124317       5.82921734
C        4.72418205      -3.64563440       6.02084004
C        5.39136104      -3.88025520       7.23433337
C        5.25172150      -3.01079284       8.32183043
C        4.46451153      -1.86504185       8.13389435
Cl       4.40598323      -0.57038314       9.28765958
C        3.80564645      -1.63419547       6.91117523
N        5.90979118      -3.30867463       9.54182519
C        7.16183831      -3.87116481       9.63458772
O        7.95820959      -4.19338195       8.77111965
C        7.44876233      -4.02699347      11.05792991
C        8.58733141      -4.48437863      11.69366761
C        8.55680360      -4.52369095      13.08932465
Br      10.07864520      -5.13142593      14.03386258
C        7.41337856      -4.12093649      13.80947606
C        6.27402323      -3.66487213      13.13716778
C        6.32895533      -3.62231106      11.75711111
C        5.31679263      -3.22391842      10.78233351
O        4.16349935      -3.00306719      11.10547672
C        2.46023479      -1.17168139       4.30637946
O        2.15676750      -0.19616126       4.96855565
C        1.97769064      -1.31199889       2.93763899
C        1.17384168      -0.47511094       2.18542245
H        1.14964102      -2.39269329      -0.65467593
H        2.59663716      -3.85172038       0.76918835
H        4.87974471      -4.38497647       5.23969655
H        5.99704271      -4.78204585       7.31299320
H        3.22665813      -0.71842485       6.83540220
H        9.45770953      -4.79365405      11.12404107
H        7.40789201      -4.16403624      14.89728901
H        5.38165181      -3.35695254      13.67366078
H        0.79470763       0.45327512       2.60072334
