178
Properties=species:S:1:pos:R:3 pbc="F F F"
C        1.79166686       1.79166686      -1.79166686
C        2.92194294       2.39418976      -1.25420991
C        3.71659148       3.20099666      -2.06933757
C        3.39938006       3.42093987      -3.42086510
O        4.30729030       4.24497350      -4.02333619
C        3.91680674       5.11510631      -5.07129316
C        2.64495161       5.98248008      -4.95173790
O        1.95805950       5.96913104      -3.92792425
N        2.31462855       6.79089314      -6.06042177
C        1.05332067       7.53827402      -5.96168258
C        1.16372757       8.93986101      -5.39433705
C        0.24141213       9.91782653      -5.80273481
C        0.26124653      11.19899347      -5.24766244
C        1.19978571      11.52148928      -4.27069526
C        2.11569658      10.56248872      -3.84649635
C        2.09189677       9.28024844      -4.39804538
C        3.14668716       6.91990624      -7.24763530
C        2.67472368       7.39758848      -8.59759838
C        3.58452502       8.26150651      -7.77451854
C        2.28197494       2.76700955      -3.96150009
Br       1.79255209       2.76721404      -5.79709700
C        1.47090680       1.97130099      -3.13477725
H        3.19355241       2.24784061      -0.21191879
H        4.59580616       3.67926419      -1.64210664
H        3.90950884       4.54192752      -6.00138132
H        4.74494259       5.83029996      -5.16277289
H        0.34867144       6.98065943      -5.33125564
H        0.58964085       7.56773063      -6.95146425
H       -0.51335917       9.68230300      -6.54994787
H       -0.46414977      11.94183294      -5.56705956
H        1.21035435      12.51521574      -3.82910657
H        2.83899157      10.80400746      -3.07302047
H        2.79964568       8.54612735      -4.02363110
H        3.89470565       6.13567625      -7.33613061
H        1.66096730       7.73627045      -8.75076935
H        3.09546037       6.91514971      -9.47387146
H        4.61500904       8.36869551      -8.09634255
H        3.16956018       9.16846926      -7.35293774
H        0.59473044       1.47686010      -3.54445072
C       -1.79166686      -1.79166686      -1.79166686
C       -1.27389039      -2.33682776      -2.95962446
C       -2.09129116      -3.13700931      -3.75862524
C       -3.42714941      -3.40262321      -3.41141241
O       -4.03888514      -4.19965351      -4.33706133
C       -5.42660317      -4.07949678      -4.59710626
C       -6.07944417      -2.69559447      -4.80413094
O       -5.40515364      -1.66350275      -4.78645840
N       -7.47382014      -2.67131086      -5.02081245
C       -8.08809825      -1.34048544      -5.12469358
C       -8.19563127      -0.77502778      -6.52726658
C       -9.24347910       0.11078920      -6.82928357
C       -9.33443667       0.71258291      -8.08604868
C       -8.37569677       0.44321351      -9.05948698
C       -7.32471232      -0.42465559      -8.77531374
C       -7.23144517      -1.02183823      -7.51690719
C       -8.29567263      -3.86522886      -5.15332720
C       -9.78938727      -3.92392353      -4.95659974
C       -9.20931649      -4.07955165      -6.33168193
C       -3.92110686      -2.88474228      -2.20463544
Br      -5.62025428      -3.28265128      -1.45395758
C       -3.10356596      -2.06227144      -1.41114765
H       -0.24614070      -2.14809522      -3.25907588
H       -1.68500346      -3.55423434      -4.67793918
H       -5.96360606      -4.65202975      -3.83718188
H       -5.58000236      -4.61421599      -5.54379709
H       -7.51151656      -0.62592998      -4.52313996
H       -9.07542814      -1.37708815      -4.65631943
H       -9.99243193       0.35138359      -6.07784336
H      -10.14537238       1.40241359      -8.30178393
H       -8.43827639       0.91896858     -10.03536886
H       -6.56530121      -0.62518026      -9.52553804
H       -6.38284893      -1.66979852      -7.31675667
H       -7.80573069      -4.76694949      -4.79383233
H      -10.36424846      -3.03351994      -4.75023871
H      -10.19640413      -4.80920926      -4.47886814
H       -9.22988625      -5.06479576      -6.78536509
H       -9.37424581      -3.27703411      -7.03968727
H       -3.48691678      -1.64455223      -0.48457224
C       -1.79166686       1.79166686       1.79166686
C       -3.16571164       1.81512384       1.58950713
C       -3.95954723       2.62838091       2.39899757
C       -3.40190830       3.42668260       3.41259413
O       -4.35937160       4.14317571       4.07305268
C       -4.06794295       5.41905891       4.61620436
C       -3.30915675       6.48007981       3.78993302
O       -2.97111911       6.25898338       2.62501231
N       -3.03093101       7.70864007       4.42637238
C       -2.22981151       8.66879842       3.65466734
C       -3.01750411       9.65989329       2.82052822
C       -2.46873357      10.92782117       2.56541874
C       -3.12686002      11.84146446       1.73957796
C       -4.34158916      11.50001284       1.15036824
C       -4.89621327      10.24448990       1.38397848
C       -4.23511373       9.32960658       2.20547028
C       -3.49792428       8.05583503       5.76046938
C       -2.90293577       9.12271642       6.64425835
C       -4.25899928       9.32648979       6.03506099
C       -2.01864424       3.35557381       3.63626653
Br      -1.09485906       4.19169915       5.07030494
C       -1.21766536       2.55206644       2.80725324
H       -3.62853546       1.21281865       0.81195770
H       -5.03451356       2.65157627       2.23108715
H       -3.59239527       5.27170019       5.58872222
H       -5.04990415       5.86449216       4.82361913
H       -1.56175945       8.12258190       2.97624516
H       -1.56642836       9.19906096       4.34334640
H       -1.51129723      11.20870019       2.99889428
H       -2.68562840      12.81472704       1.54438729
H       -4.85076238      12.20571769       0.49819659
H       -5.83516796       9.96724888       0.91360267
H       -4.67882694       8.34764383       2.34293335
H       -3.83406039       7.19658532       6.33586681
H       -2.09617952       9.75219653       6.29963106
H       -2.85487915       8.92029195       7.70931043
H       -5.12461247       9.26894456       6.68649007
H       -4.35346860      10.07712152       5.26037707
H       -0.14387281       2.50702332       2.96514513
C        1.79166686      -1.79166686       1.79166686
C        1.42329787      -2.03914140       3.10790334
C        2.23995178      -2.84274351       3.90423042
C        3.42805268      -3.40584751       3.40728485
O        4.06960025      -4.14782891       4.35817083
C        5.48276389      -4.25110625       4.36933607
C        6.37236728      -2.99946382       4.20733848
O        5.87773226      -1.87495346       4.10242908
N        7.76875267      -3.20376556       4.19342523
C        8.59324036      -2.01256848       3.94746842
C        9.04996056      -1.26383763       5.18412743
C       10.26199008      -0.55434926       5.14563414
C       10.68096727       0.20977845       6.23671363
C        9.89193877       0.28191347       7.38194494
C        8.68304471      -0.40677708       7.43485986
C        8.26224563      -1.16625875       6.34168621
C        8.40255832      -4.49481620       4.41685417
C        9.80453380      -4.86328358       4.00209315
C        9.47597854      -4.68880635       5.45576519
C        3.76174354      -3.18645536       2.06228568
Br       5.20544400      -4.00955813       1.14186100
C        2.94949697      -2.36034973       1.26713834
H        0.51284000      -1.61597076       3.52450104
H        1.95309528      -3.02625491       4.93782680
H        5.77053901      -5.02664673       3.65563193
H        5.72518188      -4.64936201       5.36347155
H        8.03367977      -1.30614981       3.32075693
H        9.45671753      -2.30723739       3.34488080
H       10.88480396      -0.58003724       4.25405049
H       11.61625857       0.76018434       6.18866849
H       10.21080341       0.88497550       8.22884875
H        8.05616859      -0.34046785       8.31938307
H        7.29995877      -1.66654367       6.40290168
H        7.71812284      -5.33357470       4.31481497
H       10.46321843      -4.14049558       3.54429310
H        9.97008192      -5.87321442       3.64118519
H        9.42610565      -5.57647892       6.07746254
H        9.89517059      -3.83032690       5.96546970
H        3.21282963      -2.17319309       0.23001854
C       -0.00445707       0.01189536      -1.78238275
H       -0.66409135       0.67374010      -2.43557963
H        0.65740317      -0.63156657      -2.45157240
C       -0.90989263      -0.90692880      -0.91072765
C        0.90977584       0.90977584      -0.90977584
C       -0.00465871       1.77757030       0.00794375
H       -0.66225468       2.44313916      -0.64384735
H        0.64322798       2.43503045       0.67728295
C       -1.78241447       0.00034974      -0.00472694
H       -2.45427497      -0.65498947       0.64260836
H       -2.43311707       0.67328779      -0.65473579
C       -0.91132561       0.90220522       0.91563759
C       -0.01476271      -0.02253852       1.78660255
H       -0.67934791      -0.69751639       2.42135241
H        0.63392994       0.61504881       2.47327442
C        0.01484550      -1.77751727      -0.01636693
H        0.67870853      -2.42144646      -0.68295456
H       -0.62264859      -2.45592969       0.64226336
C        1.78714474       0.01002794       0.00389507
H        2.44202412       0.67113390       0.66197326
H        2.45385902      -0.65136977      -0.64189061
C        0.91606151      -0.90478549       0.90901405
