137
Properties=species:S:1:pos:R:3 pbc="F F F"
C        0.00000000       0.00000000       0.00000000
C       -2.31823258       3.57458462       0.11522826
C       -1.26786755       3.61583724      -0.97791681
O       -0.97181737       2.28222647      -1.41816083
C        0.36824820       2.00634752      -1.56109132
C        1.22431749       2.77765723      -2.37451728
C        2.58137244       2.45165936      -2.45265630
C        3.07128497       1.34799193      -1.77002633
F        4.36603586       1.02019871      -1.88558845
C        2.23885521       0.55576936      -0.99133511
C        0.88708508       0.88708508      -0.88708508
N        0.68706307       3.82425607      -3.15917607
C        1.35841640       4.99086442      -3.46885895
O        2.47677135       5.29744698      -3.07031685
C        0.59610382       5.97632257      -4.28509622
C        0.87052822       7.33909850      -4.10780562
C        0.21863904       8.29587233      -4.88800685
C       -0.70522849       7.88717257      -5.84823313
C       -0.98995317       6.53316835      -6.02815513
C       -0.33887596       5.57349198      -5.24732901
H       -2.73341886       4.57436172       0.27986956
H       -1.87803843       3.22684158       1.05491770
H       -3.13178772       2.88945291      -0.14088959
H       -0.38559735       4.15520189      -0.61202989
H       -1.69039344       4.15938068      -1.82927503
H        3.26800144       3.01386916      -3.08072142
H        2.65623524      -0.30628897      -0.48175097
H       -0.31121102       3.79360241      -3.30660440
H        1.60222490       7.65853089      -3.36686031
H        0.44916942       9.34896008      -4.74799190
H       -1.70121598       6.21524413      -6.78696047
H       -0.54309892       4.52228477      -5.43158136
C       -1.35670871       8.86975268      -6.67510061
C       -1.90232340       9.69266352      -7.36760213
Br      -2.78453621      11.02324075      -8.48731853
C       -3.19214239      -0.68797009       2.73898871
C       -3.24642342      -1.63592486       1.55646177
O       -1.92447187      -1.84032715       1.03622910
C       -1.82753659      -1.77379881      -0.33435164
C       -2.60571564      -2.57587140      -1.19490496
C       -2.47009774      -2.43643678      -2.57915358
C       -1.54189516      -1.54710078      -3.10030730
F       -1.39092422      -1.45193289      -4.42896591
C       -0.74222855      -0.77318515      -2.27054597
C       -0.88708508      -0.88708508      -0.88708508
N       -3.45837008      -3.56312485      -0.64900030
C       -4.66113513      -3.95026688      -1.20673775
O       -5.17195954      -3.46317046      -2.20940518
C       -5.41761030      -4.98788434      -0.45202797
C       -6.81699185      -4.97456874      -0.52587174
C       -7.56560829      -5.95890921       0.12199929
C       -6.91220314      -6.95855838       0.84058432
C       -5.51963089      -6.97699930       0.92525988
C       -4.76812661      -5.99173135       0.27791292
H       -4.13486548      -0.72125916       3.29505135
H       -3.03109407       0.33935712       2.39785150
H       -2.37106876      -0.94299203       3.41550601
H       -3.94792777      -1.24368931       0.80998265
H       -3.61326861      -2.60234268       1.91734902
H       -3.04188741      -3.04776279      -3.27294181
H       -0.01924274      -0.09738003      -2.71507448
H       -3.26700003      -3.82816840       0.30617265
H       -7.32786520      -4.20143597      -1.09831492
H       -8.65000244      -5.94335439       0.04723544
H       -5.01093175      -7.76533054       1.47527367
H       -3.68381823      -6.04770148       0.32075249
C       -7.68038587      -7.99235751       1.48459880
C       -8.32373890      -8.85816429       2.02396093
Br      -9.36398635     -10.25810061       2.89606388
C        2.77299911       3.14353353       0.77058935
C        1.57814250       3.20128226       1.70274675
O        1.03683485       1.88406251       1.88134227
C       -0.33388746       1.80731322       1.79448636
C       -1.19476027       2.58631811       2.59541362
C       -2.57865970       2.47209524       2.43493316
C       -3.10007730       1.56370651       1.52551942
F       -4.42923174       1.43274000       1.40985129
C       -2.27068343       0.76326072       0.75201552
C       -0.88708508       0.88708508       0.88708508
N       -0.65101767       3.41746991       3.60200764
C       -1.19742748       4.62247186       3.99824042
O       -2.18598631       5.15402166       3.50452722
C       -0.44695944       5.35383361       5.05672956
C       -0.50122373       6.75416431       5.06204430
C        0.14306563       7.47990685       6.06567699
C        0.83842556       6.80269552       7.06590725
C        0.90354185       5.40894972       7.06596245
C        0.25974950       4.68032538       6.06136916
H        3.34154065       4.07780399       0.82480995
H        2.44412397       3.00153289      -0.26352347
H        3.43443384       2.30958838       1.02340024
H        0.84703058       3.91856388       1.31010113
H        1.93046894       3.54960586       2.67912535
H       -3.27297938       3.04505055       3.04456209
H       -2.71564739       0.05601596       0.06003390
H        0.29759770       3.20905419       3.87753930
H       -1.05562475       7.28368270       4.28830865
H        0.08355105       8.56535534       6.06431710
H        1.43533453       4.88170961       7.85461354
H        0.28677967       3.59485127       6.10269562
C        1.47843557       7.54736982       8.11921033
C        2.01444395       8.17103454       9.00135167
Br       2.88112417       9.17944765      10.42769959
C        2.39355464      -1.78746845      -3.03989931
C        2.52880165      -2.51107390      -1.71398905
O        1.32763025      -2.34671537      -0.94577570
C        1.52844963      -2.02959962       0.37763778
C        2.31957040      -2.81679831       1.24012329
C        2.49833141      -2.41912298       2.56823372
C        1.86269682      -1.28197868       3.04462774
F        2.00766364      -0.93323919       4.33092018
C        1.05244037      -0.51224140       2.22127791
C        0.88708508      -0.88708508       0.88708508
N        2.86065295      -4.03690720       0.77293507
C        4.06892894      -4.56340822       1.18580260
O        4.85092745      -4.02903990       1.96456784
C        4.46567147      -5.84769090       0.54416024
C        5.83159694      -6.11116628       0.37466911
C        6.25187770      -7.32432726      -0.17368675
C        5.30399631      -8.27485634      -0.54867544
C        3.94152495      -8.01956662      -0.38972125
C        3.51851101      -6.80500493       0.15842910
H        3.18150437      -2.10867314      -3.72910422
H        2.48343597      -0.70631697      -2.89586748
H        1.41938229      -1.97872644      -3.49955395
H        3.42552718      -2.15102429      -1.19491703
H        2.64350039      -3.57937221      -1.92461034
H        3.08858272      -3.00826921       3.26574009
H        0.56243146       0.36376122       2.63302701
H        2.43402807      -4.41517683      -0.06020911
H        6.57346258      -5.37432735       0.67982617
H        7.31485756      -7.52046901      -0.28920517
H        3.20380044      -8.76768629      -0.67049811
H        2.45533293      -6.64239716       0.31303712
C        5.73551881      -9.53905803      -1.08643227
C        6.09691891     -10.59782695      -1.53680361
Br       6.68127230     -12.30976675      -2.26501598
