150
Properties=species:S:1:pos:R:3 pbc="F F F"
C       -1.40832856       4.48448864      -0.79467576
C       -0.35796352       4.52574127      -1.88782084
O       -0.06191335       3.19213049      -2.32806485
C        1.27815223       2.91625154      -2.47099534
C        2.13422151       3.68756126      -3.28442130
C        3.49127646       3.36156338      -3.36256033
C        3.98118899       2.25789596      -2.67993036
F        5.27593988       1.93010274      -2.79549247
C        3.14875923       1.46567338      -1.90123913
C        1.79698910       1.79698910      -1.79698910
N        1.59696710       4.73416010      -4.06908010
C        2.26832042       5.90076844      -4.37876297
O        3.38667538       6.20735101      -3.98022088
C        1.50600784       6.88622660      -5.19500025
C        1.78043224       8.24900252      -5.01770965
C        1.12854306       9.20577635      -5.79791087
C        0.20467554       8.79707659      -6.75813715
Br      -0.65031097      10.08659039      -7.84329756
C       -0.08004914       7.44307238      -6.93805916
C        0.57102807       6.48339601      -6.15723303
H       -1.82351483       5.48426574      -0.63003446
H       -0.96813441       4.13674561       0.14501367
H       -2.22188369       3.79935694      -1.05079361
H        0.52430667       5.06510591      -1.52193392
H       -0.78048942       5.06928470      -2.73917906
H        4.17790546       3.92377318      -3.99062545
H        3.56613927       0.60361505      -1.39165500
H        0.59869300       4.70350643      -4.21650843
H        2.51212892       8.56843491      -4.27676433
H        1.35907344      10.25886411      -5.65789592
H       -0.79131196       7.12514816      -7.69686449
H        0.36680511       5.43218880      -6.34148538
C        1.67651650      -4.27838058      -1.26897177
C        0.54541675      -4.32279878      -2.27821655
O        0.11276023      -2.98855518      -2.58248705
C       -1.25170360      -2.81455736      -2.59913814
C       -2.11072241      -3.58966972      -3.40581194
C       -3.49053154      -3.37223673      -3.35263190
C       -4.00516966      -2.36842662      -2.54541903
F       -5.32631088      -2.14118388      -2.53404034
C       -3.17411778      -1.57183694      -1.76971703
C       -1.79698910      -1.79698910      -1.79698910
N       -1.56186510      -4.52504758      -4.31329461
C       -2.16536276      -5.71616134      -4.66632774
O       -3.22010354      -6.14395395      -4.21018977
C       -1.40017689      -6.56972200      -5.61733579
C       -1.55391605      -7.96010723      -5.53312113
C       -0.89765685      -8.79707409      -6.43749935
C       -0.09052190      -8.24096880      -7.42839858
Br       0.76771835      -9.36839462      -8.67890070
C        0.07390472      -6.85824442      -7.51674269
C       -0.58171792      -6.01837406      -6.61156512
H        2.17917351      -5.24996571      -1.21999317
H        1.29040513      -4.04121503      -0.27278762
H        2.41124890      -3.51060770      -1.52890806
H       -0.25964558      -4.95982564      -1.89187528
H        0.93627003      -4.76273643      -3.20150794
H       -4.18182435      -3.93971999      -3.97075975
H       -3.61254557      -0.78884688      -1.16001686
H       -0.58452227      -4.40058316      -4.53360242
H       -2.19510674      -8.39481571      -4.76740572
H       -1.03455993      -9.87325800      -6.36801554
H        0.69342717      -6.42536174      -8.29876612
H       -0.47447663      -4.94285502      -6.72314763
C       -4.10226309      -1.82892633       1.59749908
C       -4.47540434      -0.41335385       1.99354809
O       -3.72541687       0.52491048       1.20795465
C       -3.17818811       1.56638501       1.92082598
C       -3.94804577       2.42085647       2.73730182
C       -3.31908967       3.44453875       3.45177175
C       -1.95291788       3.64559369       3.32050373
F       -1.36715162       4.65647324       3.97791024
C       -1.18264010       2.83731180       2.49571984
C       -1.79698910       1.79698910       1.79698910
N       -5.35483517       2.27995270       2.76541943
C       -6.14246174       2.53427768       3.87111242
O       -5.73200296       2.86360641       4.97863789
C       -7.60139685       2.29297514       3.69286270
C       -8.34895858       1.89042305       4.80776278
C       -9.72831792       1.70354339       4.70036898
C      -10.35915420       1.92357253       3.47716255
Br     -12.23170040       1.71014996       3.33772662
C       -9.62280724       2.31851267       2.35976248
C       -8.24129538       2.50540568       2.46495606
H       -4.83364608      -2.53945121       1.99659050
H       -3.11719075      -2.09004396       1.99645073
H       -4.05686160      -1.93852774       0.50993299
H       -4.32659656      -0.28834278       3.07309273
H       -5.53524358      -0.26775220       1.76048296
H       -3.88172593       4.13163703       4.07894113
H       -0.11898156       3.03285266       2.40957509
H       -5.75870077       1.75981992       2.00018717
H       -7.85876983       1.73121947       5.76733887
H      -10.29794893       1.40208205       5.57580250
H      -10.11858709       2.50264294       1.40947067
H       -7.69229518       2.85380706       1.59437705
C        3.00847379       2.14784869       3.01021075
C        3.66233783       0.79055010       3.18381085
O        3.38240628      -0.03341956       2.04245616
C        3.00322839      -1.32172979       2.34044093
C        3.78638187      -2.18373310       3.13608910
C        3.32532411      -3.47311969       3.41695637
C        2.12666202      -3.91543753       2.87691576
F        1.71471168      -5.16802361       3.11879981
C        1.35752992      -3.09457667       2.06356516
C        1.79698910      -1.79698910       1.79698910
N        5.06149654      -1.76097079       3.57773996
C        5.63558132      -2.13545508       4.77681543
O        5.10592797      -2.83483506       5.63348424
C        6.97586472      -1.55091877       5.06045119
C        7.33045812      -1.32021866       6.39646763
C        8.59597887      -0.82301937       6.71323205
C        9.50739147      -0.56056095       5.69193686
Br      11.23508232       0.07488796       6.11938262
C        9.16176315      -0.78105766       4.35826158
C        7.89469334      -1.27812311       4.03884066
H        3.41529481       2.86012070       3.73561125
H        1.92827345       2.07463386       3.16995793
H        3.16645824       2.53898167       2.00079029
H        3.32809235       0.34598030       4.12923446
H        4.74585557       0.94253545       3.22465422
H        3.90837427      -4.17019023       4.01373960
H        0.43157054      -3.47994069       1.64989809
H        5.46011548      -0.97777294       3.08081945
H        6.62354585      -1.53769116       7.19609117
H        8.86212874      -0.65927430       7.75443042
H        9.87878054      -0.58832632       3.56359383
H        7.65972695      -1.48285709       2.99789525
C       -0.00445707       0.01189536      -1.78238275
H       -0.66409135       0.67374010      -2.43557963
H        0.65740317      -0.63156657      -2.45157240
C       -0.90989263      -0.90692880      -0.91072765
C        0.90977584       0.90977584      -0.90977584
C       -0.00465871       1.77757030       0.00794375
H       -0.66225468       2.44313916      -0.64384735
H        0.64322798       2.43503045       0.67728295
C       -1.78241447       0.00034974      -0.00472694
H       -2.45427497      -0.65498947       0.64260836
H       -2.43311707       0.67328779      -0.65473579
C       -0.91132561       0.90220522       0.91563759
C       -0.01476271      -0.02253852       1.78660255
H       -0.67934791      -0.69751639       2.42135241
H        0.63392994       0.61504881       2.47327442
C        0.01484550      -1.77751727      -0.01636693
H        0.67870853      -2.42144646      -0.68295456
H       -0.62264859      -2.45592969       0.64226336
C        1.78714474       0.01002794       0.00389507
H        2.44202412       0.67113390       0.66197326
H        2.45385902      -0.65136977      -0.64189061
C        0.91606151      -0.90478549       0.90901405
