158
Properties=species:S:1:pos:R:3 pbc="F F F"
C       -1.40832856       4.48448864      -0.79467576
C       -0.35796352       4.52574127      -1.88782084
O       -0.06191335       3.19213049      -2.32806485
C        1.27815223       2.91625154      -2.47099534
C        2.13422151       3.68756126      -3.28442130
C        3.49127646       3.36156338      -3.36256033
C        3.98118899       2.25789596      -2.67993036
F        5.27593988       1.93010274      -2.79549247
C        3.14875923       1.46567338      -1.90123913
C        1.79698910       1.79698910      -1.79698910
N        1.59696710       4.73416010      -4.06908010
C        2.26832042       5.90076844      -4.37876297
O        3.38667538       6.20735101      -3.98022088
C        1.50600784       6.88622660      -5.19500025
C        1.78043224       8.24900252      -5.01770965
C        1.12854306       9.20577635      -5.79791087
C        0.20467554       8.79707659      -6.75813715
C       -0.08004914       7.44307238      -6.93805916
C        0.57102807       6.48339601      -6.15723303
H       -1.82351483       5.48426574      -0.63003446
H       -0.96813441       4.13674561       0.14501367
H       -2.22188369       3.79935694      -1.05079361
H        0.52430667       5.06510591      -1.52193392
H       -0.78048942       5.06928470      -2.73917906
H        4.17790546       3.92377318      -3.99062545
H        3.56613927       0.60361505      -1.39165500
H        0.59869300       4.70350643      -4.21650843
H        2.51212892       8.56843491      -4.27676433
H        1.35907344      10.25886411      -5.65789592
H       -0.79131196       7.12514816      -7.69686449
H        0.36680511       5.43218880      -6.34148538
C       -0.44680469       9.77965670      -7.58500464
C       -0.99241938      10.60256755      -8.27750616
Br      -1.87463218      11.93314478      -9.39722255
C       -2.39255220      -3.55947602       2.08119238
C       -2.65663699      -4.08067266       0.68171107
O       -1.65867680      -3.57964005      -0.21996515
C       -2.14761898      -3.10345451      -1.41432562
C       -2.95254999      -3.87968196      -2.27397211
C       -3.43347182      -3.32051263      -3.46141572
C       -3.08145376      -2.02545357      -3.81210798
F       -3.51424405      -1.51401657      -4.97327447
C       -2.26248017      -1.25655051      -2.99664107
C       -1.79698910      -1.79698910      -1.79698910
N       -3.20162955      -5.23632828      -1.96224947
C       -4.36869461      -5.90659703      -2.27256020
O       -5.35460881      -5.41171615      -2.80792230
C       -4.43546850      -7.32592045      -1.82584573
C       -5.68865488      -7.86059151      -1.49789802
C       -5.80657549      -9.20076039      -1.12489440
C       -4.66972523     -10.00606081      -1.08410325
C       -3.41666982      -9.48160896      -1.40280360
C       -3.29627658      -8.13960719      -1.77577334
H       -2.97977542      -4.12399783       2.81298788
H       -2.67438453      -2.50459255       2.15537955
H       -1.33249037      -3.63628234       2.34050586
H       -3.67876041      -3.81651643       0.38393033
H       -2.56300527      -5.17127192       0.70630285
H       -4.04373465      -3.89302820      -4.15554124
H       -1.99924552      -0.25188016      -3.31028364
H       -2.57475729      -5.65391817      -1.29003240
H       -6.57947397      -7.23539349      -1.54246071
H       -6.78623306      -9.60566836      -0.88393205
H       -2.53262641     -10.11473189      -1.38334239
H       -2.31844746      -7.76113036      -2.06090146
C       -4.79258543     -11.39619159      -0.72907963
C       -4.89548086     -12.56042612      -0.43174735
Br      -5.06185405     -14.44289490       0.04901380
C        1.94530447       1.90119785       3.91494247
C        0.53128455       2.24497567       4.34190746
O       -0.40063134       1.37491984       3.68273081
C       -1.50434822       2.00488343       3.15616745
C       -2.36105395       2.81699790       3.92815221
C       -3.45120333       3.44513722       3.31905962
C       -3.71322881       3.23210385       1.97368265
F       -4.78543702       3.80624964       1.40984844
C       -2.90217326       2.40936775       1.20413074
C       -1.79698910       1.79698910       1.79698910
N       -2.15154652       2.92628325       5.32237752
C       -2.42405655       4.05784453       6.06595075
O       -2.83147487       5.12429758       5.61847482
C       -2.10092202       3.96908738       7.51722528
C       -1.72078670       5.14061853       8.18573918
C       -1.45965299       5.11560756       9.55696974
C       -1.58299980       3.91788641      10.25900308
C       -1.95484980       2.74483452       9.60139807
C       -2.21598860       2.76753692       8.22813158
H        2.66953382       2.37338769       4.58693149
H        2.13535479       2.26022481       2.89872750
H        2.10969289       0.81960709       3.91835266
H        0.34222324       3.30755308       4.14601666
H        0.45144124       2.06112430       5.41829128
H       -4.14137507       4.06590198       3.88502704
H       -3.14592728       2.25756692       0.15791512
H       -1.57221001       2.21042576       5.73607209
H       -1.63715784       6.07977785       7.64039248
H       -1.17662452       6.03386021      10.06534875
H       -2.06354890       1.81398127      10.15317053
H       -2.54505551       1.85286285       7.74256093
C       -1.34374089       3.89530799      11.67880778
C       -1.14336155       3.87639856      12.86789422
Br      -0.81936512       3.84582362      14.79054642
C        4.46940954       1.43303515       0.83446146
C        4.72144158       0.03731533       1.37147233
O        3.76545593      -0.87746053       0.81536554
C        3.19976953      -1.74268663       1.72294295
C        3.96586542      -2.59021325       2.55012540
C        3.32213099      -3.42666785       3.46660134
C        1.93664443      -3.45482950       3.52754137
F        1.32917902      -4.29134719       4.38100888
C        1.16350498      -2.65366676       2.69850001
C        1.79698910      -1.79698910       1.79698910
N        5.37014917      -2.63901317       2.39104496
C        6.26444854      -2.86419766       3.41920564
O        5.97165340      -3.00049302       4.60210084
C        7.70400455      -2.84590869       3.03732144
C        8.63841841      -2.41847668       3.99024932
C       10.00282778      -2.43448423       3.69491828
C       10.43123490      -2.88218733       2.44646705
C        9.50841968      -3.30395088       1.48871183
C        8.14159323      -3.28792679       1.78213710
H        5.32755517       2.08027968       1.04350988
H        3.58572444       1.87096351       1.30883659
H        4.29035606       1.41739863      -0.24469057
H        4.70655208       0.06317137       2.46796580
H        5.71492198      -0.27736490       1.03568746
H        3.87868620      -4.10403200       4.10958589
H        0.08233769      -2.71204435       2.76702728
H        5.72560532      -2.27336663       1.51973590
H        8.30535627      -2.08108368       4.97088821
H       10.71771962      -2.11089231       4.44722154
H        9.84526964      -3.66551288       0.51991817
H        7.44205818      -3.65990648       1.03851463
C       11.83960768      -2.92835365       2.14989533
C       13.01911988      -2.96701794       1.90151651
Br      14.92629135      -3.02953482       1.49990897
C       -0.00445707       0.01189536      -1.78238275
H       -0.66409135       0.67374010      -2.43557963
H        0.65740317      -0.63156657      -2.45157240
C       -0.90989263      -0.90692880      -0.91072765
C        0.90977584       0.90977584      -0.90977584
C       -0.00465871       1.77757030       0.00794375
H       -0.66225468       2.44313916      -0.64384735
H        0.64322798       2.43503045       0.67728295
C       -1.78241447       0.00034974      -0.00472694
H       -2.45427497      -0.65498947       0.64260836
H       -2.43311707       0.67328779      -0.65473579
C       -0.91132561       0.90220522       0.91563759
C       -0.01476271      -0.02253852       1.78660255
H       -0.67934791      -0.69751639       2.42135241
H        0.63392994       0.61504881       2.47327442
C        0.01484550      -1.77751727      -0.01636693
H        0.67870853      -2.42144646      -0.68295456
H       -0.62264859      -2.45592969       0.64226336
C        1.78714474       0.01002794       0.00389507
H        2.44202412       0.67113390       0.66197326
H        2.45385902      -0.65136977      -0.64189061
C        0.91606151      -0.90478549       0.90901405
