141
Properties=species:S:1:pos:R:3 pbc="F F F"
C        0.00000000       0.00000000       0.00000000
C        0.88155901       0.88155901      -0.88155901
C        0.77505423       0.80096075      -2.26697057
C        1.58999485       1.59870133      -3.07658065
C        2.49561002       2.50845544      -2.50976610
C        2.59193053       2.56391851      -1.10714346
C        1.79273228       1.75414965      -0.29587284
C        3.42374022       3.39965211      -3.31566619
N        3.15407154       3.49705190      -4.74953244
N        4.11367756       2.98408634      -5.57256000
C        3.58746655       3.06450084      -6.78986314
C        2.30875590       3.63190734      -6.77596877
C        2.04481642       3.94213258      -5.45552538
N        0.85500903       4.49046905      -5.01000448
C        0.60879643       5.04473345      -3.77277906
O        1.44951263       5.35364784      -2.93920878
C       -0.82095222       5.28975111      -3.44232881
C       -1.18913872       5.32962948      -2.08988392
C       -2.52464384       5.52556744      -1.73793645
Br      -3.01828506       5.54816183       0.08602207
C       -3.50105705       5.69497286      -2.72017806
C       -3.13777279       5.66380293      -4.06660821
C       -1.80504489       5.45760605      -4.41923160
F       -1.49235296       5.42154058      -5.72359857
H        0.07065720       0.11499832      -2.72960804
H        1.50126634       1.49225907      -4.15506517
H        3.30079490       3.24347902      -0.63612676
H        1.89370872       1.81166608       0.78422460
H        4.43501055       2.98012780      -3.21414085
H        3.48519862       4.41757227      -2.92510331
H        4.15860149       2.70025078      -7.63295278
H        1.66158299       3.80143727      -7.62420696
H        0.11142912       4.54516494      -5.70282849
H       -0.43326282       5.19081660      -1.31829736
H       -4.54229408       5.84838578      -2.44647003
H       -3.88647265       5.79501538      -4.84309496
C       -0.88155901      -0.88155901      -0.88155901
C       -2.04103122      -0.35688406      -1.44507027
C       -2.85637265      -1.16588942      -2.24301477
C       -2.50399570      -2.49711391      -2.51272194
C       -1.33264480      -3.00713429      -1.92321341
C       -0.52618467      -2.20682030      -1.10974981
C       -3.33842634      -3.44438646      -3.35624573
N       -4.41716569      -2.84379552      -4.13969467
N       -5.68404710      -3.20321072      -3.78306608
C       -6.47141652      -2.43860402      -4.53180999
C       -5.74092607      -1.59756349      -5.37814246
C       -4.40993887      -1.88706520      -5.14547031
N       -3.35512864      -1.23786266      -5.76249125
C       -2.03262878      -1.62452282      -5.76915733
O       -1.59731760      -2.71620294      -5.42884872
C       -1.05914180      -0.60567202      -6.24631387
C        0.26661805      -0.69799900      -5.79899374
C        1.20339972       0.25553626      -6.19779602
Br       2.98112981       0.14208133      -5.56706585
C        0.83779480       1.29811085      -7.04999952
C       -0.47819564       1.38910906      -7.50355176
C       -1.41730101       0.44259407      -7.09708582
F       -2.67682625       0.56679455      -7.54275449
H       -2.32745709       0.67541673      -1.26322321
H       -3.76902405      -0.73350740      -2.64605913
H       -1.04284952      -4.04287982      -2.09467133
H        0.36844208      -2.62887355      -0.66071874
H       -3.81169156      -4.15459491      -2.66299274
H       -2.73875942      -4.05131923      -4.03779555
H       -7.54391335      -2.52524659      -4.42264511
H       -6.13509692      -0.87463833      -6.07749198
H       -3.60783045      -0.42751222      -6.32407988
H        0.55699670      -1.50498513      -5.12786271
H        1.56776114       2.04145928      -7.36178215
H       -0.77806091       2.19468115      -8.16825793
C       -0.88155901       0.88155901       0.88155901
C       -2.10814830       0.40250822       1.33232904
C       -2.92270407       1.21265655       2.12991622
C       -2.50503456       2.49658496       2.51221204
C       -1.26577732       2.96189834       2.03531684
C       -0.45844350       2.16200611       1.22230516
C       -3.33285570       3.44277707       3.36342575
N       -4.49900029       2.86851812       4.03313746
N       -5.71282847       3.33599115       3.62150428
C       -6.59702296       2.58070435       4.26410322
C       -5.98163540       1.63908780       5.09590882
C       -4.62202404       1.85104863       4.96940172
N       -3.65574289       1.09290442       5.60683524
C       -2.31474968       1.38683670       5.72472256
O       -1.78807679       2.46569372       5.48859875
C       -1.44354391       0.27520964       6.19237415
C       -0.08707032       0.30498084       5.83832353
C        0.75714580      -0.73408232       6.23008817
Br       2.57751476      -0.70248242       5.72385188
C        0.26795267      -1.80163442       6.98368097
C       -1.07913634      -1.83115139       7.34465339
C       -1.92559089      -0.79842717       6.94462905
F       -3.21805170      -0.86436275       7.29909724
H       -2.44701732      -0.59396386       1.06221010
H       -3.88665320       0.81886849       2.44306889
H       -0.92262127       3.96223502       2.29554439
H        0.49004869       2.54969313       0.86150577
H       -3.71102428       4.22670642       2.69154851
H       -2.74362144       3.96227148       4.12198128
H       -7.65175870       2.74743099       4.09261535
H       -6.46831016       0.90152921       5.71738786
H       -3.99773880       0.26744454       6.09423921
H        0.29972464       1.13153117       5.24404461
H        0.92569819      -2.61169281       7.28995274
H       -1.47484533      -2.65523227       7.93202462
C        0.88155901      -0.88155901       0.88155901
C        0.59702442      -1.00782500       2.23813614
C        1.41022395      -1.80512093       3.04993195
C        2.49567157      -2.51020139       2.50795860
C        2.76879983      -2.35808117       1.13611151
C        1.96960246      -1.54681673       0.32633558
C        3.43355025      -3.38504925       3.32045903
N        3.00749515      -3.71284641       4.68031431
N        3.77910646      -3.20625003       5.68496740
C        3.12492966      -3.51849373       6.79840714
C        1.94876545      -4.22987618       6.53799038
C        1.89323085      -4.38341110       5.16583244
N        0.85433701      -5.00525151       4.49589403
C        0.84000360      -5.40803041       3.17827492
O        1.81065482      -5.49344724       2.43826720
C       -0.49085821      -5.77697385       2.62501206
C       -0.68251569      -5.67305993       1.23983045
C       -1.92495897      -5.97930787       0.68451115
Br      -2.18491015      -5.80816117      -1.17939632
C       -2.98060583      -6.40115632       1.49354338
C       -2.79182386      -6.51338982       2.87107239
C       -1.55361782      -6.19749157       3.42791902
F       -1.41011672      -6.30522812       4.75767479
H       -0.24688875      -0.48371126       2.67844106
H        1.17693455      -1.86117440       4.11048163
H        3.61723397      -2.87419497       0.68897174
H        2.20832681      -1.44096438      -0.72814099
H        4.38147817      -2.83552413       3.41227691
H        3.68294461      -4.32369483       2.82123476
H        3.53297914      -3.20813418       7.75069172
H        1.23302287      -4.59314391       7.26106044
H        0.04681057      -5.24580302       5.06680896
H        0.13499531      -5.33739790       0.60345793
H       -3.94928044      -6.64065808       1.06118410
H       -3.60393503      -6.84138951       3.51418320
