134
Properties=species:S:1:pos:R:3 pbc="F F F"
C        1.79163765       1.79163765      -1.79163765
C        1.37318063       3.08273487      -2.11823669
C        2.17442401       3.88940445      -2.93139870
C        3.39069912       3.39567819      -3.41156282
C        4.21493698       4.24851550      -4.29290738
N        5.33512540       3.81968514      -4.77853935
N        5.98627961       4.67550696      -5.60711141
C        7.22149363       4.41353587      -6.17068170
O        7.81542964       5.30211940      -6.78117730
C        7.85695340       3.07200912      -6.02581142
C        7.12256823       1.87987768      -5.98542090
C        7.77458305       0.65109856      -5.84433757
C        9.16533092       0.61019869      -5.77238904
Br      10.04491909      -1.05170460      -5.57878840
C        9.91164527       1.78402701      -5.85089080
C        9.25794769       3.01280697      -5.98077758
C        3.80862566       2.10199772      -3.07777043
C        3.00570945       1.29773554      -2.26650551
H        0.42560375       3.46618552      -1.74730572
H        1.83708278       4.89136596      -3.18353306
H        3.82364990       5.25557000      -4.52527014
H        5.64090859       5.62050120      -5.73833853
H        6.03983156       1.89105872      -6.06981223
H        7.18825921      -0.26267385      -5.79681398
H       10.99735586       1.75695773      -5.81089359
H        9.84414859       3.92755005      -6.04529156
H        4.75518973       1.71332104      -3.44686760
H        3.33530171       0.29281762      -2.01480937
C       -1.79163765      -1.79163765      -1.79163765
C       -1.71850847      -3.18078158      -1.67486215
C       -2.51867756      -3.99063810      -2.48591150
C       -3.38745816      -3.40159066      -3.40889131
C       -4.20733146      -4.26950585      -4.27952254
N       -5.00541148      -3.76403717      -5.16390125
N       -5.67786706      -4.65815177      -5.93287915
C       -6.61500014      -4.30455193      -6.88615914
O       -7.29386472      -5.17636567      -7.42849594
C       -6.83264683      -2.87410577      -7.24802134
C       -5.80282021      -1.92466661      -7.26038000
C       -6.06887703      -0.59602275      -7.60511940
C       -7.36097745      -0.22054429      -7.96639691
Br      -7.71936336       1.57675215      -8.42939168
C       -8.38768530      -1.16179338      -7.99708441
C       -8.12261378      -2.48745006      -7.64146840
C       -3.46095260      -2.00800948      -3.51943172
C       -2.65952785      -1.20133368      -2.70908898
H       -1.04057922      -3.63953381      -0.95898196
H       -2.45056028      -5.07115203      -2.39026949
H       -4.09527585      -5.36104047      -4.14817372
H       -5.61263233      -5.65133485      -5.73578115
H       -4.78421781      -2.20639372      -7.01009098
H       -5.26158813       0.13139182      -7.59220302
H       -9.39417442      -0.87803835      -8.29299441
H       -8.92622121      -3.22090577      -7.66986322
H       -4.13678735      -1.54409516      -4.23449586
H       -2.71947883      -0.11997389      -2.80347598
C       -1.79163765       1.79163765       1.79163765
C       -3.17137993       1.58154080       1.82123146
C       -3.98193749       2.39192287       2.62136680
C       -3.40299337       3.40789344       3.38705332
C       -4.27416647       4.27522957       4.20696382
N       -3.78031755       5.24259191       4.91044043
N       -4.68005549       5.99697093       5.59187156
C       -4.33322498       7.03272292       6.43976331
O       -5.19486143       7.56331985       7.14054505
C       -2.91986905       7.49934824       6.53555664
C       -2.04129999       7.50199128       5.44457555
C       -0.72503347       7.94836703       5.59661869
C       -0.29326261       8.42037284       6.83428321
Br       1.48742218       9.02076514       7.03865993
C       -1.16681877       8.46089763       7.91884669
C       -2.47930491       8.00395138       7.76827594
C       -2.01838385       3.61209130       3.35791865
C       -1.21112163       2.80212351       2.55670536
H       -3.62254897       0.79313598       1.22341004
H       -5.05552830       2.22294628       2.63350723
H       -5.35909926       4.06699537       4.17839540
H       -5.65958095       5.73276553       5.60740185
H       -2.36982568       7.16517306       4.46570377
H       -0.05155572       7.92685564       4.74398797
H       -0.84016645       8.84243843       8.88260229
H       -3.16009051       8.04023534       8.61666435
H       -1.56215355       4.39987064       3.95335418
H       -0.13712515       2.96934662       2.53645693
C        1.79163765      -1.79163765       1.79163765
C        3.15649469      -1.51888682       1.89877068
C        3.96753154      -2.32875737       2.69893825
C        3.40398028      -3.40709919       3.38686067
C        4.27736474      -4.27192618       4.20706894
N        3.79923728      -5.29473241       4.83938020
N        4.70205520      -6.03872339       5.52811937
C        4.36720584      -7.12997263       6.30853273
O        5.22011221      -7.65343148       7.02518264
C        2.97554318      -7.66639321       6.31283755
C        2.15020251      -7.65657171       5.18109259
C        0.85177754      -8.17100715       5.24723450
C        0.38624584      -8.72293130       6.43874152
Br      -1.37041181      -9.41534036       6.52707434
C        1.20900596      -8.77574057       7.56181655
C        2.50307113      -8.25100830       7.49745281
C        2.03395597      -3.67421503       3.28022281
C        1.22627768      -2.86455059       2.47912223
H        3.59588471      -0.68181338       1.36139690
H        5.02977960      -2.11050703       2.77169518
H        5.35090609      -4.01197816       4.24160578
H        5.66561846      -5.73003385       5.60409602
H        2.50725208      -7.25706864       4.23638179
H        0.21871081      -8.13919326       4.36449527
H        0.85672984      -9.21903296       8.48944438
H        3.14435307      -8.29701023       8.37562690
H        1.58959733      -4.51078417       3.81499687
H        0.16391833      -3.08067222       2.39833815
C       -0.00445707       0.01189536      -1.78238275
H       -0.66409135       0.67374010      -2.43557963
H        0.65740317      -0.63156657      -2.45157240
C       -0.90989263      -0.90692880      -0.91072765
C        0.90977584       0.90977584      -0.90977584
C       -0.00465871       1.77757030       0.00794375
H       -0.66225468       2.44313916      -0.64384735
H        0.64322798       2.43503045       0.67728295
C       -1.78241447       0.00034974      -0.00472694
H       -2.45427497      -0.65498947       0.64260836
H       -2.43311707       0.67328779      -0.65473579
C       -0.91132561       0.90220522       0.91563759
C       -0.01476271      -0.02253852       1.78660255
H       -0.67934791      -0.69751639       2.42135241
H        0.63392994       0.61504881       2.47327442
C        0.01484550      -1.77751727      -0.01636693
H        0.67870853      -2.42144646      -0.68295456
H       -0.62264859      -2.45592969       0.64226336
C        1.78714474       0.01002794       0.00389507
H        2.44202412       0.67113390       0.66197326
H        2.45385902      -0.65136977      -0.64189061
C        0.91606151      -0.90478549       0.90901405
