113
Properties=species:S:1:pos:R:3 pbc="F F F"
C        0.00000000       0.00000000       0.00000000
C        0.88173363       0.88173363      -0.88173363
C        0.46327661       2.17283085      -1.20833267
C        1.26451998       2.97950042      -2.02149468
C        2.48079510       2.48577417      -2.50165880
C        3.30503295       3.33861147      -3.38300336
N        4.42522138       2.90978112      -3.86863532
N        5.07637558       3.76560293      -4.69720738
C        6.31158961       3.50363185      -5.26077768
O        6.90552561       4.39221537      -5.87127327
C        6.94704937       2.16210510      -5.11590740
C        6.21266421       0.96997366      -5.07551688
C        6.86467903      -0.25880547      -4.93443355
C        8.25542690      -0.29970534      -4.86248502
Br       9.13501507      -1.96160862      -4.66888437
C        9.00174125       0.87412299      -4.94098678
C        8.34804367       2.10290295      -5.07087355
C        2.89872163       1.19209369      -2.16786640
C        2.09580543       0.38783151      -1.35660149
H       -0.48430027       2.55628149      -0.83740170
H        0.92717876       3.98146194      -2.27362904
H        2.91374587       4.34566598      -3.61536611
H        4.73100457       4.71059718      -4.82843451
H        5.12992753       0.98115469      -5.15990821
H        6.27835518      -1.17257787      -4.88690995
H       10.08745183       0.84705371      -4.90098957
H        8.93424456       3.01764602      -5.13538754
H        3.84528571       0.80341702      -2.53696357
H        2.42539768      -0.61708640      -1.10490535
C       -0.88173363      -0.88173363      -0.88173363
C       -0.89713126      -2.26350495      -0.68380392
C       -1.69726585      -3.07397030      -1.49427894
C       -2.47719466      -2.49290223      -2.49813117
C       -3.29707475      -3.36364831      -3.36592472
N       -4.01360248      -2.86754234      -4.32249300
N       -4.69374326      -3.76661226      -5.07883037
C       -5.55397888      -3.41820243      -6.10381782
O       -6.25179502      -4.28134355      -6.63587569
C       -5.66656618      -2.00166080      -6.55683488
C       -4.58353080      -1.11332261      -6.56130133
C       -4.75131543       0.20545073      -6.99444241
C       -5.99697769       0.63026008      -7.45148898
Br      -6.22261878       2.41431695      -8.03398899
C       -7.07402907      -0.25262293      -7.49019901
C       -6.90765532      -1.56772370      -7.04644114
C       -2.46224647      -1.10632079      -2.69011447
C       -1.66100834      -0.29913713      -1.88009296
H       -0.28824099      -2.71628930       0.09514736
H       -1.69831150      -4.14909100      -1.33486723
H       -3.25696047      -4.45009388      -3.16772362
H       -4.69816049      -4.74855485      -4.82332092
H       -3.59877752      -1.43601806      -6.23619485
H       -3.90456513       0.88635412      -6.97447626
H       -8.04405308       0.06873411      -7.86017614
H       -7.75023140      -2.25576445      -7.08128226
H       -3.06879054      -0.64845971      -3.46841605
H       -1.65184319       0.77644653      -2.03781997
C       -0.88173363       0.88173363       0.88173363
C       -2.27118944       0.79027414       0.78297654
C       -3.08085804       1.60148792       1.58316913
C       -2.49131791       2.49922552       2.47768463
C       -3.35835558       3.37067313       3.29761907
N       -2.85180279       4.23246982       4.11936521
N       -3.74421032       5.00525489       4.78972068
C       -3.39071584       5.93619530       5.74908799
O       -4.26479506       6.48191108       6.42230812
C       -1.95830188       6.26949644       5.99726355
C       -0.99111192       6.28293929       4.98410354
C        0.33840079       6.60006083       5.27864706
C        0.69755538       6.93275662       6.58300534
Br       2.49599649       7.35841866       6.97986864
C       -0.26066076       6.96225858       7.59393167
C       -1.58738922       6.63419519       7.30023576
C       -1.09753853       2.58436876       2.57677444
C       -0.29101596       1.77393778       1.77528470
H       -2.73025254       0.09407426       0.08505612
H       -4.16150198       1.52572992       1.49503783
H       -4.44986401       3.26015691       3.16475705
H       -4.73932472       4.82651057       4.70420096
H       -1.25938750       6.05492496       3.95667798
H        1.07935081       6.58829272       4.48374536
H        0.01062775       7.23605141       8.61007144
H       -2.33405162       6.66160434       8.09162216
H       -0.63329250       3.27969913       3.27267466
H        0.79059354       1.84856540       1.85524477
C        0.88173363      -0.88173363       0.88173363
C        2.25870273      -0.65709797       0.92863942
C        3.06937082      -1.46736639       1.72877788
C        2.49331477      -2.49781499       2.47709831
C        3.36499910      -3.36459245       3.29705623
N        2.87416927      -4.34484191       3.98462664
N        3.77467715      -5.09685699       4.66765176
C        3.43003622      -6.14547697       5.50048595
O        4.28979756      -6.67435843       6.20485827
C        2.02090252      -6.62834115       5.57581819
C        1.15423650      -6.62856373       4.47535452
C       -0.15864696      -7.09074672       4.60820736
C       -0.59857230      -7.58085450       5.83592438
Br      -2.37470417      -8.20261742       6.01437757
C        0.26362148      -7.62377877       6.92945076
C        1.57259384      -7.15108337       6.79814296
C        1.11140971      -2.71660987       2.43066216
C        0.30405272      -1.90670837       1.62947734
H        2.70766964       0.14260219       0.34431546
H        4.14086129      -1.28695891       1.75444954
H        4.44784125      -3.14436561       3.28257110
H        4.75103812      -4.82228378       4.69671436
H        1.48961113      -6.27756417       3.50381513
H       -0.82308087      -7.06720460       3.74856353
H       -0.06922912      -8.01931056       7.88541366
H        2.24454162      -7.18927121       7.65346530
H        0.65740106      -3.51571320       3.01255205
H       -0.76777502      -2.08527851       1.59571313
