194
Properties=species:S:1:pos:R:3 pbc="F F F"
C        1.79121995       1.79121995      -1.79121995
C        2.81206054       1.21738687      -2.54119761
C        3.65059008       2.03192665      -3.30662097
C        3.53132439       3.43262027      -3.26142172
C        4.57696299       4.32343052      -3.90669203
S        5.38474744       5.46471839      -2.70804239
C        7.08394081       4.75573655      -2.50641410
C        7.28772091       3.67332439      -1.40887365
H        8.36812083       3.51419789      -1.30593584
O        6.79393923       4.16439422      -0.17173093
C        6.63690668       2.33913233      -1.79743845
H        5.67527451       2.61663256      -2.19352672
O        7.35270717       1.72961296      -2.87738597
C        6.24566875       1.28536048      -0.74653054
S        7.50017173       0.30606872       0.14100778
C        8.25838591       1.51104480       1.24590960
C        7.48896146       1.93076808       2.48038105
C        8.03779201       1.69187703       3.74835751
C        7.45616938       2.23721060       4.90059684
C        6.31099752       3.01919941       4.80162019
Br       5.57969193       3.83412815       6.33604214
C        5.72401249       3.23292023       3.56528974
C        6.30917567       2.68619388       2.41840712
C        2.44916845       3.98437546      -2.55898333
C        1.58290706       3.16748151      -1.82601243
H        2.98553045       0.14441538      -2.51251347
H        4.45647175       1.56089855      -3.86616781
H        4.08013966       4.93634857      -4.66720554
H        5.33977650       3.73443372      -4.42532076
H        7.69177485       5.62179189      -2.21725450
H        7.45737206       4.42224928      -3.47895998
H        7.53613496       4.55777908       0.32230795
H        7.08532987       2.16608621      -3.70346605
H        5.69988350       0.50912274      -1.30019831
H        5.50580760       1.67896693      -0.05038214
H        8.59339807       2.39002659       0.69399899
H        9.18243859       1.01986388       1.57442268
H        8.94901452       1.10979282       3.85283932
H        7.92295216       2.06108176       5.86468498
H        4.83106446       3.84222121       3.46165356
H        5.82699777       2.91630840       1.47754574
H        2.29688915       5.06250552      -2.54186609
H        0.77177507       3.61932916      -1.26152868
C       -1.79121995      -1.79121995      -1.79121995
C       -2.67968268      -1.20490459      -2.68605776
C       -3.52238781      -2.01247863      -3.45427127
C       -3.54574518      -3.40699293      -3.27262827
C       -4.61194930      -4.25986253      -3.93527371
S       -5.63172773      -5.20119358      -2.72458692
C       -7.26428338      -4.32688854      -2.75491954
C       -7.45803218      -3.12808672      -1.78380005
H       -8.52244255      -2.86374192      -1.80207010
O       -7.12735938      -3.53745237      -0.46525264
C       -6.64726450      -1.90199585      -2.22421711
H       -5.68600440      -2.30183995      -2.49758944
O       -7.20040437      -1.33996001      -3.41934173
C       -6.24990728      -0.78931656      -1.23833593
S       -7.47644419       0.38052624      -0.56931472
C       -8.44496926      -0.63756262       0.55901076
C       -7.83384920      -1.00110045       1.89560117
C       -8.46764358      -0.59079430       3.07712635
C       -8.04765022      -1.07012727       4.32499435
C       -6.98055186      -1.95721963       4.40919475
Br      -6.47281388      -2.67960876       6.07464470
C       -6.30929644      -2.34287969       3.26053314
C       -6.73314082      -1.86132399       2.01750238
C       -2.59009499      -3.98157123      -2.42086102
C       -1.71677309      -3.17732774      -1.68230018
H       -2.74882830      -0.12311527      -2.77051573
H       -4.22490057      -1.52856436      -4.13007318
H       -4.11176149      -4.98641322      -4.58551905
H       -5.26384757      -3.65885356      -4.57682985
H       -7.97760586      -5.10258570      -2.45062968
H       -7.51478161      -4.05848265      -3.78531706
H       -7.94574770      -3.81254230      -0.01331609
H       -6.90444994      -1.87756724      -4.17286495
H       -5.58327306      -0.12307009      -1.80286141
H       -5.61743252      -1.17718382      -0.44054034
H       -8.81401504      -1.53302683       0.05761620
H       -9.34196489      -0.03592112       0.75000621
H       -9.32298285       0.07780287       3.03921196
H       -8.57913697      -0.75919559       5.21898361
H       -5.47481780      -3.03673714       3.29992283
H       -6.19377088      -2.22485838       1.15286883
H       -2.54655069      -5.06208327      -2.29262680
H       -1.00761426      -3.64221560      -1.00280306
C       -1.79121995       1.79121995       1.79121995
C       -3.15544684       1.53618366       1.87901453
C       -3.96871104       2.37555295       2.64487372
C       -3.44098808       3.52581563       3.25856267
C       -4.35506502       4.55613715       3.89588337
S       -4.18156643       6.22948081       3.14646099
C       -5.74169755       6.43485622       2.16953769
C       -5.74508253       5.92382693       0.70100949
H       -6.66355481       6.29481466       0.22988510
O       -4.63779065       6.48228966       0.00998408
C       -5.75078139       4.39092656       0.63176952
H       -5.02806438       4.08776424       1.36960518
O       -7.01173052       3.87534745       1.07262814
C       -5.26101519       3.62838857      -0.61184399
S       -6.21951198       3.60719335      -2.16147266
C       -6.02675328       5.28557384      -2.78880601
C       -4.70721900       5.66114931      -3.42901983
C       -4.68375103       6.06816108      -4.77060057
C       -3.52352887       6.60935155      -5.34009728
C       -2.36753327       6.74000682      -4.57896336
Br      -0.83345640       7.55511467      -5.31079312
C       -2.35194774       6.30398032      -3.26428508
C       -3.51321997       5.76472220      -2.70097974
C       -2.05204514       3.72127335       3.21920875
C       -1.23021529       2.85826140       2.48792432
H       -3.60153138       0.70961822       1.33130970
H       -5.03657335       2.16834176       2.67862299
H       -4.09045534       4.63701387       4.95622455
H       -5.40254389       4.24161481       3.85537228
H       -5.87917114       7.52233519       2.12931492
H       -6.58439177       6.03397564       2.74021391
H       -4.93624528       7.28698050      -0.45161969
H       -7.02211758       3.88847412       2.04429044
H       -5.26678182       2.56778886      -0.32536613
H       -4.21147987       3.83858638      -0.81490957
H       -6.29951520       6.01967681      -2.02976634
H       -6.80935257       5.37106284      -3.55253561
H       -5.58059346       6.00576649      -5.38039193
H       -3.54612008       6.94531159      -6.37208272
H       -1.46235592       6.39779365      -2.64851745
H       -3.45164619       5.47457054      -1.66045630
H       -1.60227178       4.57485387       3.72413511
H       -0.16128349       3.04829933       2.44305009
C        1.79121995      -1.79121995       1.79121995
C        3.06891969      -1.36479766       2.13692767
C        3.89313897      -2.19576116       2.90023758
C        3.48057782      -3.49383805       3.25095051
C        4.45267121      -4.47594114       3.87847318
S        4.66357600      -6.01096570       2.88296653
C        6.35791044      -5.83159098       2.15659004
C        6.48377121      -5.09091656       0.79523118
H        7.50771046      -5.24656530       0.43397880
O        5.59160535      -5.67835021      -0.13989117
C        6.24723493      -3.58211243       0.94413011
H        5.38805541      -3.50897350       1.58840488
O        7.33164704      -2.97384017       1.65421890
C        5.81866543      -2.70218094      -0.24328659
S        6.96891587      -2.29211316      -1.59579636
C        7.14467501      -3.85482158      -2.47597547
C        6.00809746      -4.30188997      -3.37063894
C        6.24071185      -4.48216518      -4.74156549
C        5.27694059      -5.08014432      -5.56430177
C        4.06272984      -5.49531505      -5.02946816
Br       2.80177982      -6.38663384      -6.11063571
C        3.79100246      -5.28778382      -3.68714330
C        4.75698706      -4.69052648      -2.87055111
C        2.16214687      -3.87352549       2.95685488
C        1.32081834      -3.02636355       2.22921912
H        3.44567478      -0.40507919       1.79170532
H        4.89694420      -1.84882959       3.13776432
H        4.05849950      -4.76631619       4.85887807
H        5.42938827      -4.01490406       4.05523865
H        6.67644709      -6.86739664       1.98697752
H        7.03455277      -5.41544775       2.90858080
H        6.08011179      -6.34619352      -0.65469922
H        7.20730479      -3.14482801       2.60274933
H        5.60976581      -1.71293209       0.18650665
H        4.85705429      -3.02163458      -0.64353220
H        7.42484689      -4.65789747      -1.79331869
H        8.03020003      -3.70276295      -3.10508319
H        7.19183361      -4.19494709      -5.18081268
H        5.49931446      -5.23543483      -6.61540033
H        2.85128104      -5.60563940      -3.24528833
H        4.50287818      -4.58684500      -1.82396275
H        1.79224422      -4.85311053       3.25590601
H        0.31471201      -3.35485093       1.98306997
C       -0.00445707       0.01189536      -1.78238275
H       -0.66409135       0.67374010      -2.43557963
H        0.65740317      -0.63156657      -2.45157240
C       -0.90989263      -0.90692880      -0.91072765
C        0.90977584       0.90977584      -0.90977584
C       -0.00465871       1.77757030       0.00794375
H       -0.66225468       2.44313916      -0.64384735
H        0.64322798       2.43503045       0.67728295
C       -1.78241447       0.00034974      -0.00472694
H       -2.45427497      -0.65498947       0.64260836
H       -2.43311707       0.67328779      -0.65473579
C       -0.91132561       0.90220522       0.91563759
C       -0.01476271      -0.02253852       1.78660255
H       -0.67934791      -0.69751639       2.42135241
H        0.63392994       0.61504881       2.47327442
C        0.01484550      -1.77751727      -0.01636693
H        0.67870853      -2.42144646      -0.68295456
H       -0.62264859      -2.45592969       0.64226336
C        1.78714474       0.01002794       0.00389507
H        2.44202412       0.67113390       0.66197326
H        2.45385902      -0.65136977      -0.64189061
C        0.91606151      -0.90478549       0.90901405
