173
Properties=species:S:1:pos:R:3 pbc="F F F"
C        0.00000000       0.00000000       0.00000000
C        0.88131593       0.88131593      -0.88131593
C        1.90215652       0.30748284      -1.63129359
C        2.74068606       1.12202263      -2.39671695
C        2.62142036       2.52271625      -2.35151770
C        3.66705896       3.41352649      -2.99678800
S        4.47484342       4.55481437      -1.79813837
C        6.17403679       3.84583252      -1.59651008
C        6.37781689       2.76342036      -0.49896962
H        7.45821681       2.60429387      -0.39603182
O        5.88403520       3.25449020       0.73817309
C        5.72700266       1.42922831      -0.88753443
H        4.76537049       1.70672854      -1.28362270
O        6.44280315       0.81970894      -1.96748195
C        5.33576473       0.37545646       0.16337348
S        6.59026770      -0.60383531       1.05091180
C        7.34848188       0.60114078       2.15581362
C        6.57905743       1.02086406       3.39028508
C        7.12788799       0.78197300       4.65826153
C        6.54626536       1.32730658       5.81050087
C        5.40109349       2.10929538       5.71152422
Br       4.66978791       2.92422413       7.24594617
C        4.81410846       2.32301621       4.47519376
C        5.39927165       1.77628985       3.32831114
C        1.53926442       3.07447143      -1.64907930
C        0.67300304       2.25757749      -0.91610841
H        2.07562642      -0.76548865      -1.60260945
H        3.54656773       0.65099452      -2.95626379
H        3.17023563       4.02644454      -3.75730151
H        4.42987247       2.82452970      -3.51541673
H        6.78187083       4.71188787      -1.30735048
H        6.54746804       3.51234526      -2.56905595
H        6.62623093       3.64787506       1.23221197
H        6.17542585       1.25618219      -2.79356203
H        4.78997948      -0.40078128      -0.39029429
H        4.59590358       0.76906290       0.85952188
H        7.68349404       1.48012257       1.60390301
H        8.27253457       0.10995985       2.48432670
H        8.03911049       0.19988879       4.76274334
H        7.01304814       1.15117774       6.77458900
H        3.92116044       2.93231719       4.37155758
H        4.91709374       2.00640438       2.38744976
H        1.38698512       4.15260149      -1.63196207
H       -0.13812895       2.70942513      -0.35162466
C       -0.88131593      -0.88131593      -0.88131593
C       -2.04164890      -0.35796772      -1.44131633
C       -2.87389712      -1.18072878      -2.20479974
C       -2.59932577      -2.55320339      -2.34312515
C       -3.61309903      -3.48934953      -2.97492490
S       -4.14127080      -4.84308344      -1.84344191
C       -5.87002763      -4.37159152      -1.37476025
C       -6.05486704      -3.44694699      -0.13839284
H       -7.12560411      -3.43221445       0.09927607
O       -5.36439253      -4.00527190       0.96931212
C       -5.60409247      -2.00949334      -0.43017958
H       -4.67333426      -2.12375534      -0.95863212
O       -6.50735473      -1.37823687      -1.34440243
C       -5.20439158      -1.03583768       0.69238156
S       -6.44032682      -0.31779097       1.82259719
C       -6.92408343      -1.71821529       2.84848968
C       -5.96966807      -2.17239309       3.93242475
C       -6.38310135      -2.14036121       5.27186310
C       -5.61039504      -2.73238768       6.27971165
C       -4.40793960      -3.35426491       5.96333985
Br      -3.41200598      -4.23544238       7.29938249
C       -3.95573842      -3.36025038       4.65405788
C       -4.73143849      -2.76785846       3.65204660
C       -1.38665015      -3.04218550      -1.83397951
C       -0.53123279      -2.21022731      -1.10522884
H       -2.32531044       0.67657675      -1.26401353
H       -3.78790068      -0.75330850      -2.61261686
H       -3.14895022      -3.95160077      -3.85343069
H       -4.49239163      -2.94472420      -3.33270307
H       -6.34106271      -5.33117150      -1.12887497
H       -6.39259891      -3.98274512      -2.25352522
H       -5.99422425      -4.53692343       1.48925367
H       -6.29663231      -1.68715519      -2.24138255
H       -4.81698047      -0.14382162       0.18130961
H       -4.34731708      -1.40964584       1.25151832
H       -7.22662594      -2.56651802       2.23343036
H       -7.84906227      -1.38124800       3.33214255
H       -7.33244204      -1.68792585       5.54411195
H       -5.97297686      -2.71947536       7.30281533
H       -3.02138460      -3.84185033       4.38131489
H       -4.34501129      -2.83468036       2.64364330
H       -1.11777993      -4.08934309      -1.96442566
H        0.38647730      -2.61861850      -0.69077964
C       -0.88131593       0.88131593       0.88131593
C       -2.26497770       0.75697427       0.81898098
C       -3.07113492       1.60040782       1.58788290
C       -2.50515365       2.63169491       2.35880575
C       -3.38102164       3.68607510       3.01027673
S       -2.98232043       5.39479074       2.45068499
C       -4.41189942       5.84287384       1.36160613
C       -4.31489039       5.47016907      -0.14485259
H       -5.14419670       5.97231169      -0.65796589
O       -3.09798554       5.97559424      -0.67322748
C       -4.45276894       3.95815763      -0.36716118
H       -3.83792166       3.51857052       0.39922954
O       -5.79303188       3.53328790      -0.09632574
C       -3.91243080       3.26654845      -1.63113155
S       -4.70921945       3.48200106      -3.25569991
C       -4.30317779       5.18269992      -3.69206867
C       -2.89765320       5.48109000      -4.16910679
C       -2.70338671       6.00381410      -5.45560135
C       -1.44774865       6.47580381      -5.86048139
C       -0.36653740       6.42064943      -4.98832217
Br       1.30062007       7.14142483      -5.49273889
C       -0.52205338       5.86771566      -3.72783812
C       -1.77793777       5.39830758      -3.32899499
C       -1.10725118       2.69013626       2.46542771
C       -0.29820805       1.81928196       1.72919893
H       -2.72727780       0.03227284       0.15319658
H       -4.15140319       1.49874326       1.50367958
H       -3.21745443       3.64351458       4.09301267
H       -4.44341343       3.48278599       2.84361948
H       -4.44537749       6.93778590       1.41794578
H       -5.34029764       5.47807130       1.81050031
H       -3.27453203       6.84464571      -1.07728372
H       -5.89923203       3.45912842       0.86680961
H       -4.04305022       2.19022964      -1.45378737
H       -2.83313056       3.38837364      -1.71605961
H       -4.58265537       5.86843667      -2.89137844
H       -4.99453108       5.41494124      -4.51130460
H       -3.53674485       6.08696830      -6.14745720
H       -1.33650783       6.90462552      -6.85149647
H        0.30637540       5.81587461      -3.02757917
H       -1.84724781       5.01020422      -2.32140367
H       -0.63456878       3.44512008       3.09185982
H        0.78267272       1.90483349       1.80076007
C        0.88131593      -0.88131593       0.88131593
C        2.26442898      -0.83034060       0.74616338
C        3.06690363      -1.67547819       1.51704382
C        2.49164605      -2.63843746       2.36557081
C        3.34755027      -3.70319403       3.02662917
S        2.83915295      -5.41450813       2.57413507
C        4.18850078      -5.98635799       1.44152062
C        4.03341247      -5.68224447      -0.07545006
H        4.81051348      -6.24987424      -0.60184523
O        2.76837606      -6.15027905      -0.51830280
C        4.23255679      -4.19162463      -0.38041603
H        3.67920004      -3.68505135       0.39147033
O        5.60372795      -3.82260443      -0.19633835
C        3.66286850      -3.53525499      -1.65027579
S        4.36507014      -3.86880702      -3.29835656
C        3.85597574      -5.56581456      -3.62798125
C        2.41535660      -5.81529634      -4.02101653
C        2.13123817      -6.38889785      -5.26853657
C        0.83542731      -6.81566676      -5.58802300
C       -0.19632204      -6.66387606      -4.66868936
Br      -1.91967382      -7.32278221      -5.05504252
C        0.04927938      -6.05943008      -3.44677856
C        1.34490591      -5.63553986      -3.13319542
C        1.09974503      -2.62081857       2.54225156
C        0.29736716      -1.74660675       1.80271502
H        2.72680902      -0.16290119       0.02303701
H        4.14516522      -1.63281664       1.37584417
H        3.24125578      -3.60028212       4.11244378
H        4.40870122      -3.56222455       2.79889314
H        4.17198922      -7.07757236       1.55154759
H        5.15493571      -5.64782417       1.82610938
H        2.88215545      -7.04561420      -0.88587563
H        5.76200799      -3.70759306       0.75556901
H        3.85401227      -2.45963661      -1.53415639
H        2.57603752      -3.60622679      -1.67681971
H        4.14226735      -6.22544208      -2.80799583
H        4.49296703      -5.87196932      -4.46676864
H        2.92352063      -6.54738218      -5.99464686
H        0.65361726      -7.28556113      -6.54954151
H       -0.73916917      -5.93202700      -2.71093778
H        1.48376495      -5.20334243      -2.15105902
H        0.62355635      -3.31983688       3.22815546
H       -0.78136911      -1.77377285       1.93051709
