181
Properties=species:S:1:pos:R:3 pbc="F F F"
C        0.00000000       0.00000000       0.00000000
C        0.88131593       0.88131593      -0.88131593
C        1.90215652       0.30748284      -1.63129359
C        2.74068606       1.12202263      -2.39671695
C        2.62142036       2.52271625      -2.35151770
C        3.66705896       3.41352649      -2.99678800
S        4.47484342       4.55481437      -1.79813837
C        6.17403679       3.84583252      -1.59651008
C        6.37781689       2.76342036      -0.49896962
H        7.45821681       2.60429387      -0.39603182
O        5.88403520       3.25449020       0.73817309
C        5.72700266       1.42922831      -0.88753443
H        4.76537049       1.70672854      -1.28362270
O        6.44280315       0.81970894      -1.96748195
C        5.33576473       0.37545646       0.16337348
S        6.59026770      -0.60383531       1.05091180
C        7.34848188       0.60114078       2.15581362
C        6.57905743       1.02086406       3.39028508
C        7.12788799       0.78197300       4.65826153
C        6.54626536       1.32730658       5.81050087
C        5.40109349       2.10929538       5.71152422
C        4.81410846       2.32301621       4.47519376
C        5.39927165       1.77628985       3.32831114
C        1.53926442       3.07447143      -1.64907930
C        0.67300304       2.25757749      -0.91610841
H        2.07562642      -0.76548865      -1.60260945
H        3.54656773       0.65099452      -2.95626379
H        3.17023563       4.02644454      -3.75730151
H        4.42987247       2.82452970      -3.51541673
H        6.78187083       4.71188787      -1.30735048
H        6.54746804       3.51234526      -2.56905595
H        6.62623093       3.64787506       1.23221197
H        6.17542585       1.25618219      -2.79356203
H        4.78997948      -0.40078128      -0.39029429
H        4.59590358       0.76906290       0.85952188
H        7.68349404       1.48012257       1.60390301
H        8.27253457       0.10995985       2.48432670
H        8.03911049       0.19988879       4.76274334
H        7.01304814       1.15117774       6.77458900
H        3.92116044       2.93231719       4.37155758
H        4.91709374       2.00640438       2.38744976
H        1.38698512       4.15260149      -1.63196207
H       -0.13812895       2.70942513      -0.35162466
C        4.84244154       2.73182794       6.88368513
C        4.37457052       3.25319896       7.86536989
Br       3.61806267       4.09621180       9.45267113
C       -0.88131593      -0.88131593      -0.88131593
C       -1.39837921      -2.06843833      -0.37411541
C       -2.16166291      -2.89915507      -1.19860765
C       -2.34210381      -2.59389019      -2.55966031
C       -2.97215278      -3.59978179      -3.50543889
S       -1.86298540      -4.06453661      -4.90027414
C       -1.33910581      -5.79194451      -4.48532907
C       -0.07510691      -5.96804593      -3.59705403
H        0.18964842      -7.03234519      -3.61584572
O        1.00019413      -5.23550739      -4.16503905
C       -0.34102452      -5.56113126      -2.14160960
H       -0.89542521      -4.64170614      -2.21859037
O       -1.21575367      -6.50317097      -1.51106939
C        0.79583884      -5.15722796      -1.18645858
S        1.97480642      -6.38129500      -0.52903202
C        2.97613583      -6.80320914      -1.96673574
C        4.02374097      -5.81012455      -2.42325283
C        5.37350988      -6.18962758      -2.43548177
C        6.34608890      -5.37663443      -3.03252554
C        5.98375400      -4.16749607      -3.61512260
C        4.66381968      -3.74912759      -3.57662300
C        3.69715866      -4.56497154      -2.97943748
C       -1.87629120      -1.35662968      -3.02989428
C       -1.14806238      -0.50388323      -2.19474333
H       -1.18745377      -2.37330714       0.64801368
H       -2.53528915      -3.83378468      -0.78475220
H       -3.87362964      -3.14694255      -3.93340949
H       -3.29362720      -4.50137549      -2.97481621
H       -1.10625498      -6.23227583      -5.46257836
H       -2.19418787      -6.34654556      -4.08813582
H        1.52191939      -5.83821583      -4.72559757
H       -2.12538981      -6.30791636      -1.79186389
H        0.29833187      -4.80559551      -0.27222885
H        1.32349467      -4.27694177      -1.55199750
H        2.34723475      -7.10010231      -2.80684604
H        3.49135152      -7.72359829      -1.66592095
H        5.68104050      -7.14269940      -2.01459705
H        7.37795982      -5.71297920      -3.05461750
H        4.35542073      -2.81031404      -4.02702673
H        2.67799323      -4.20306612      -3.01097546
H       -2.04034378      -1.06502049      -4.06618442
H       -0.76741166       0.43414380      -2.58965298
C        6.96730445      -3.36403406      -4.29385474
C        7.79102794      -2.69113462      -4.86229291
Br       9.12291917      -1.60311315      -5.78140936
C       -0.88131593       0.88131593       0.88131593
C       -2.25456116       0.66565131       0.92072048
C       -3.06559963       1.50640439       1.68742162
C       -2.52298303       2.62125094       2.35142034
C       -3.42513953       3.65968403       2.99254990
S       -3.17918179       5.34844816       2.30016620
C       -4.70190155       5.63038438       1.28409346
C       -4.67551844       5.16352611      -0.19883768
H       -5.56772349       5.57627085      -0.68545185
O       -3.53150602       5.70811443      -0.83926815
C       -4.72460732       3.63425000      -0.31509193
H       -4.03412728       3.28734023       0.43425422
O       -6.01320866       3.14463614       0.07214923
C       -4.21987175       2.89434288      -1.56636693
S       -5.13070625       2.94850843      -3.14369409
C       -4.86909239       4.63809044      -3.71337379
C       -3.52001565       4.99195436      -4.30233361
C       -3.44343076       5.43771130      -5.62954260
C       -2.25076792       5.95981501      -6.14751186
C       -1.11523559       6.03237787      -5.34874880
C       -1.15284075       5.55723628      -4.04814611
C       -2.34630587       5.03727913      -3.53633464
C       -1.12829552       2.77519656       2.35932308
C       -0.31045920       1.90953363       1.62669610
H       -2.70802170      -0.13024974       0.33497526
H       -4.13967597       1.33105706       1.68309301
H       -3.19081648       3.70090687       4.06225834
H       -4.47976476       3.37870429       2.91134986
H       -4.80573046       6.72227546       1.27310326
H       -5.57319531       5.23871132       1.81696262
H       -3.79167135       6.53491213      -1.28468946
H       -6.05293021       3.12921868       1.04302117
H       -4.26589033       1.82637821      -1.31277606
H       -3.15883583       3.07826217      -1.73165340
H       -5.14303694       5.35733558      -2.94065892
H       -5.62507092       4.77012611      -4.49702931
H       -4.32265005       5.42092317      -6.26731727
H       -2.23178382       6.32680196      -7.16894891
H       -0.28011549       5.60545901      -3.40365445
H       -2.32524399       4.71461249      -2.50380813
H       -0.66903834       3.59924539       2.90326496
H        0.76451619       2.06802090       1.61941612
C        0.09119139       6.63521900      -5.85344325
C        1.10157400       7.14009845      -6.27612486
Br       2.73527721       7.95644581      -6.95956527
C        0.88131593      -0.88131593       0.88131593
C        1.07663522      -2.21702895       0.54726878
C        1.84105065      -3.03503879       1.38333620
C        2.34408814      -2.54829432       2.60327185
C        2.97525965      -3.48764309       3.61447073
S        2.11185861      -3.47475625       5.24118129
C        1.23115636      -5.10365142       5.28157161
C       -0.19866854      -5.16520913       4.67366628
H       -0.62935551      -6.13443874       4.95345927
O       -0.99648417      -4.14378881       5.25304767
C       -0.17058923      -5.07207594       3.14227869
H        0.53457189      -4.28551782       2.93563201
O        0.38576413      -6.26515661       2.57907330
C       -1.39379358      -4.61147643       2.33016486
S       -2.87097012      -5.66215739       2.14433333
C       -3.61441625      -5.62273450       3.78549079
C       -4.36439195      -4.37446350       4.19956486
C       -5.72749498      -4.46306878       4.51602566
C       -6.40677340      -3.38011954       5.08972493
C       -5.73492515      -2.18985878       5.34393103
C       -4.39940924      -2.06210960       4.99923055
C       -3.72634697      -3.14662484       4.42697249
C        2.19909563      -1.18090668       2.88281285
C        1.47002165      -0.35059667       2.02607062
H        0.61339867      -2.64010964      -0.34076109
H        1.95959283      -4.08227631       1.11195689
H        4.00817373      -3.16275600       3.78305195
H        3.02525134      -4.51204307       3.23252449
H        1.13179840      -5.31626854       6.35304224
H        1.88139208      -5.87979514       4.86768204
H       -1.48676434      -4.52423339       6.00442496
H        1.35315732      -6.21512513       2.65688761
H       -1.04128362      -4.52777327       1.29300283
H       -1.67988532      -3.59336323       2.59196668
H       -2.88653373      -5.89589026       4.55035707
H       -4.32760748      -6.45590152       3.76987368
H       -6.27039153      -5.39033377       4.35631371
H       -7.45402098      -3.49028731       5.35337055
H       -3.85205466      -1.14380222       5.19017248
H       -2.67610947      -3.00018550       4.21197232
H        2.61778459      -0.75866810       3.79509600
H        1.34141262       0.69816028       2.27966850
C       -6.40972633      -1.10010968       6.00020100
C       -6.97487231      -0.18744481       6.54982710
Br      -7.88866557       1.28825710       7.43852601
