197
Properties=species:S:1:pos:R:3 pbc="F F F"
C        0.00000000       0.00000000       0.00000000
C        0.88239242       0.88239242      -0.88239242
C        0.33668615       1.50418852      -2.00043648
C        1.14186614       2.31204235      -2.80626519
C        2.50186102       2.49624118      -2.50499174
C        3.03518960       1.85715096      -1.37712512
C        2.22845450       1.05602064      -0.56357142
C        3.37002889       3.36181741      -3.39073045
N        4.33248324       2.55778443      -4.12898772
C        4.89484381       3.17961946      -5.27682751
C        5.47570634       4.45641605      -5.15726704
C        6.14395672       5.05358125      -6.22706688
C        6.24793543       4.38551025      -7.44046919
C        5.67868549       3.11796274      -7.58445392
C        5.00627261       2.48875364      -6.51742583
N        4.46512350       1.19054605      -6.72361073
C        5.19225985      -0.00006225      -6.88709421
N        4.43622137      -1.12836929      -6.68579809
C        3.20173729      -0.65094298      -6.41041984
C        2.05850579      -1.37004607      -6.09874942
C        0.86291699      -0.67709595      -5.88583309
C        0.81306492       0.72243994      -6.00239994
C        1.97161383       1.44967528      -6.29155537
C        3.14846201       0.74816648      -6.46308539
C        6.53609692      -0.11913653      -7.46868616
C        7.64451222       0.54122075      -6.92850678
C        8.90560888       0.42496240      -7.52266224
C        9.06703161      -0.37186728      -8.65606211
Br      10.77232751      -0.53218523      -9.45919636
C        7.98285635      -1.05343241      -9.19955122
C        6.72564153      -0.92366902      -8.60533212
H       -0.70651327       1.35642324      -2.26801348
H        0.71189067       2.77926373      -3.68696448
H        4.09261146       1.96797560      -1.14467279
H        2.66330208       0.56107346       0.29830762
H        3.89208599       4.08208574      -2.74751367
H        2.73236772       3.94216749      -4.06926603
H        3.95237187       1.64808526      -4.41984187
H        5.45288180       4.97581227      -4.20469955
H        6.60420856       6.02920089      -6.09988997
H        6.78281530       4.83202315      -8.27185153
H        5.76525619       2.59044351      -8.53047353
H        2.10402988      -2.44970567      -6.02182075
H       -0.03432609      -1.23294782      -5.63571632
H       -0.12832348       1.23949592      -5.85764873
H        1.95483415       2.52621095      -6.38354724
H        7.51833929       1.14934142      -6.03618071
H        9.74692631       0.95630129      -7.08919079
H        8.09295024      -1.68560568     -10.07428261
H        5.86930178      -1.45194102      -9.02122921
C       -0.88239242      -0.88239242      -0.88239242
C       -0.74197059      -0.83405501      -2.26528557
C       -1.54665807      -1.64130112      -3.07221449
C       -2.50491567      -2.49620067      -2.50197761
C       -2.63554956      -2.52726240      -1.10665372
C       -1.82410706      -1.72725630      -0.29668320
C       -3.38173902      -3.35702947      -3.38380825
N       -4.76141461      -2.89455196      -3.36328882
C       -5.56942507      -3.33542777      -4.44643793
C       -5.63148770      -4.70893871      -4.74896302
C       -6.50102038      -5.19946158      -5.72412290
C       -7.32990453      -4.32663453      -6.41737580
C       -7.28590453      -2.95898509      -6.13621253
C       -6.42350063      -2.43873844      -5.15021300
N       -6.44015397      -1.03960522      -4.89952108
C       -7.47632624      -0.31370401      -4.28926156
N       -7.07872063       0.91913790      -3.83406744
C       -5.77325426       0.99023387      -4.17819376
C       -4.87932809       2.01938834      -3.92726939
C       -3.57155618       1.90944920      -4.40954715
C       -3.17149909       0.78501573      -5.15142144
C       -4.06584924      -0.26448601      -5.38250922
C       -5.34171903      -0.15103851      -4.86695635
C       -8.90659528      -0.64655057      -4.33250071
C       -9.40558249      -1.86026442      -3.84839285
C      -10.77084990      -2.15462344      -3.92776019
C      -11.65001357      -1.22241290      -4.47879996
Br     -13.49694860      -1.61791922      -4.58447082
C      -11.17918736      -0.00072451      -4.94906329
C       -9.81320717       0.28047514      -4.87457260
H       -0.02521975      -0.16213481      -2.73056888
H       -1.44256865      -1.58412218      -4.15142806
H       -3.39091731      -3.16410157      -0.65024096
H       -1.94889457      -1.75770940       0.78053603
H       -3.32205369      -4.38802849      -3.01160322
H       -2.97837673      -3.36126856      -4.40415595
H       -4.83809054      -1.87080282      -3.31140564
H       -5.03188833      -5.41629058      -4.18521472
H       -6.54619226      -6.26685701      -5.92025016
H       -8.02393049      -4.70000511      -7.16275439
H       -7.93873631      -2.27534323      -6.67209369
H       -5.19975119       2.88745799      -3.36385175
H       -2.86500150       2.70835441      -4.21179533
H       -2.16044282       0.72926749      -5.53764584
H       -3.77736718      -1.13841918      -5.94880598
H       -8.71982569      -2.57838329      -3.40565245
H      -11.13022393      -3.10815282      -3.55404164
H      -11.85052206       0.73975756      -5.37086268
H       -9.43235996       1.23301375      -5.23924376
C       -0.88239242       0.88239242       0.88239242
C       -0.82412806       2.26582428       0.75135882
C       -1.63135947       3.07276989       1.55604433
C       -2.49622018       2.50192059       2.50495317
C       -2.53722639       1.10600900       2.62623029
C       -1.73721021       0.29611341       1.81472294
C       -3.35701705       3.38364615       3.38191355
N       -2.90373922       3.35110789       4.76440828
C       -3.34283843       4.43183802       5.57661433
C       -4.71472696       4.74295174       5.63171073
C       -5.20457795       5.71562202       6.50440488
C       -4.33270710       6.39772293       7.34348483
C       -2.96665910       6.10789088       7.30655217
C       -2.44720295       5.12414009       6.44110903
N       -1.04987172       4.86417656       6.46523200
C       -0.33477078       4.24243379       7.50208725
N        0.89766033       3.78176565       7.10954484
C        0.97955461       4.13391504       5.80685372
C        2.01289188       3.88207654       4.91802448
C        1.91467383       4.37357349       3.61275448
C        0.79774413       5.12539478       3.21025414
C       -0.25607154       5.35752819       4.09924474
C       -0.15435287       4.83294236       5.37241866
C       -0.67669944       4.27853661       8.93041051
C       -1.89678673       3.79915705       9.41829597
C       -2.19956796       3.87155758      10.78210798
C       -1.26957223       4.41073455      11.67091966
Br      -1.67648329       4.50696305      13.51589230
C       -0.04178557       4.87603443      11.21115517
C        0.24787330       4.80860126       9.84657666
H       -0.14450608       2.73135105       0.04206632
H       -1.56647038       4.15224049       1.45940801
H       -3.18196427       0.64887084       3.37442474
H       -1.77549732      -0.78167301       1.93224363
H       -4.39000526       3.01860587       3.31307427
H       -3.35196456       4.40660559       2.98523109
H       -1.88087452       3.29201493       4.84740955
H       -5.42178947       4.18777133       5.02383283
H       -6.27094638       5.91844535       6.54390769
H       -4.70575686       7.14099685       8.03993627
H       -2.28383616       6.63501404       7.96732303
H        2.87515335       3.31090393       5.24039437
H        2.71688949       4.17519441       2.91013749
H        0.75114346       5.51855433       2.20141031
H       -1.12438695       5.93141017       3.80879522
H       -2.61326261       3.36561121       8.72498760
H       -3.15784740       3.50176611      11.13280489
H        0.69701071       5.28858747      11.89005042
H        1.20524387       5.16949211       9.47434172
C        0.88239242      -0.88239242       0.88239242
C        1.76783249      -1.77930185       0.29417681
C        2.57572819      -2.58471094       1.09973455
C        2.49695196      -2.50575027       2.50039172
C        1.59480692      -1.59968691       3.07497185
C        0.79231077      -0.78547822       2.27025756
C        3.36572231      -3.39139588       3.36545855
N        2.57035446      -4.40126435       4.04763659
C        3.29461640      -5.52408782       4.53258655
C        4.42781083      -5.31918339       5.34239521
C        5.09829770      -6.38863766       5.93766949
C        4.64861300      -7.68758967       5.73771220
C        3.52700964      -7.91692170       4.93717081
C        2.82647703      -6.85423854       4.33173649
N        1.68188799      -7.15366442       3.54372787
C        0.44376555      -7.62081130       4.01471497
N       -0.57572070      -7.46022201       3.10914887
C        0.02515846      -6.90125126       2.03480444
C       -0.55779478      -6.50300903       0.84199489
C        0.25794609      -5.97931062      -0.16560257
C        1.64725610      -5.87350427       0.01714443
C        2.23181476      -6.25135023       1.22967949
C        1.40321066      -6.73275419       2.22374904
C        0.22938926      -8.44317174       5.21308556
C        0.60903825      -8.01559822       6.48960328
C        0.41206713      -8.83504810       7.60611830
C       -0.18569166     -10.08575345       7.45116464
Br      -0.45512033     -11.19401373       8.96044524
C       -0.58902042     -10.52404107       6.19395451
C       -0.37950979      -9.70318981       5.08362461
H        1.82844708      -1.87632222      -0.78684585
H        3.25126296      -3.29459151       0.63226442
H        1.50237184      -1.54490557       4.15798243
H        0.09242452      -0.09893342       2.73470999
H        3.87343704      -2.75039523       4.09785313
H        4.14655675      -3.85075157       2.74649292
H        1.79445347      -4.75327422       3.47257131
H        4.76706809      -4.31066856       5.55565697
H        5.95535711      -6.20014773       6.57779458
H        5.15025162      -8.52410831       6.21233005
H        3.16910938      -8.93161906       4.78544478
H       -1.62831775      -6.59852719       0.70593552
H       -0.19226426      -5.66012025      -1.09941358
H        2.26584945      -5.48771134      -0.78473961
H        3.29765737      -6.17605992       1.39087505
H        1.06082075      -7.03396894       6.60907174
H        0.72534410      -8.48316721       8.58390708
H       -1.06490592     -11.48931550       6.05721760
H       -0.69067025     -10.03484811       4.09441210
