142
Properties=species:S:1:pos:R:3 pbc="F F F"
C        1.79148381       1.79148381      -1.79148381
C        1.47066207       3.13569467      -1.96621500
C        2.27949531       3.94250722      -2.77265442
C        3.41303670       3.41205652      -3.40915543
C        3.71871988       2.05547144      -3.22126050
C        2.91177945       1.24651623      -2.41522014
C        4.26269927       4.25036322      -4.25315004
N        5.38526458       3.74458408      -4.88750178
C        5.82473136       4.79621985      -5.51230562
S        7.15949913       5.13376602      -6.55652965
C        6.58708092       6.80344826      -6.67507480
C        5.46927089       7.05081751      -5.95507572
C        4.79060617       8.35728734      -5.89742251
C        3.39259663       8.44069658      -5.79818361
C        2.74590914       9.67977989      -5.73516977
C        3.49340234      10.85230440      -5.77176538
Br       2.62232782      12.52688383      -5.68801935
C        4.88051771      10.79662961      -5.86648330
C        5.52442066       9.55567640      -5.92519236
N        5.04309095       5.89546841      -5.29995950
N        4.02410631       5.55926341      -4.48218966
H        0.59817219       3.56670924      -1.48205452
H        2.01844618       4.99174689      -2.90006082
H        4.59177044       1.61849858      -3.70359415
H        3.16756099       0.19845739      -2.28284376
H        7.11599801       7.51634484      -7.29468685
H        2.77848533       7.54179595      -5.77037195
H        1.66230876       9.71344343      -5.65587960
H        5.47099256      11.70911562      -5.88942074
H        6.61100376       9.54600689      -5.97911012
C       -1.79148381      -1.79148381      -1.79148381
C       -1.21291664      -2.79668484      -2.56297026
C       -2.02135489      -3.60439692      -3.36890513
C       -3.41177099      -3.41323361      -3.40924404
C       -3.97522662      -2.39478179      -2.62544341
C       -3.16919028      -1.58582839      -1.81849715
C       -4.26228788      -4.25447556      -4.24944909
N       -5.63550570      -4.08121124      -4.30063350
C       -5.98144969      -5.00735061      -5.14445653
S       -7.47305554      -5.54623378      -5.83050548
C       -6.56290578      -6.75296840      -6.74972980
C       -5.23041142      -6.72469397      -6.52005873
C       -4.25637071      -7.61875832      -7.17018700
C       -2.96779283      -7.16692464      -7.49675936
C       -2.03804457      -8.01594803      -8.10686620
C       -2.38907213      -9.32997759      -8.39842240
Br      -1.13565364     -10.47816470      -9.22341266
C       -3.65875296      -9.80307601      -8.08180166
C       -4.58486729      -8.95248461      -7.46793753
N       -4.91239983      -5.72105340      -5.60506562
N       -3.78693319      -5.24637439      -5.03225179
H       -0.13879392      -2.96219636      -2.54594566
H       -1.55687519      -4.38726775      -3.96611096
H       -5.05074251      -2.22476108      -2.63835958
H       -3.62676386      -0.80326706      -1.21883122
H       -7.07753435      -7.41861885      -7.43087650
H       -2.66275462      -6.14326264      -7.28463598
H       -1.04676767      -7.63918658      -8.34567754
H       -3.93742714     -10.83065222      -8.30144956
H       -5.56220814      -9.35838684      -7.21552578
C       -1.79148381       1.79148381       1.79148381
C       -3.04759228       1.33771295       2.18726651
C       -3.85357213       2.14528963       2.99579519
C       -3.41022666       3.41027539       3.41374658
C       -2.14220166       3.84959834       3.00365182
C       -1.33413924       3.04400516       2.19537141
C       -4.24793472       4.25903460       4.25924320
N       -3.82644003       5.50878763       4.68212279
C       -4.84733056       5.90185894       5.38406733
S       -5.24092094       7.32119907       6.28767478
C       -6.80437006       6.58847194       6.67276198
C       -6.97504801       5.35493248       6.14518362
C       -8.19230337       4.54164048       6.31137217
C       -8.64703751       3.70397119       5.28046813
C       -9.79809350       2.92444787       5.43831744
C      -10.50914659       2.97556706       6.63275847
Br     -12.06458693       1.92470813       6.84793594
C      -10.07741704       3.79520467       7.67100892
C       -8.92350311       4.57045247       7.51133385
N       -5.85203381       4.97754685       5.40893819
N       -5.47865406       3.90246442       4.68444089
H       -3.40983109       0.36143843       1.87566643
H       -4.83268469       1.77841660       3.29915261
H       -1.77411501       4.82660022       3.31314794
H       -0.35501623       3.40381292       1.89003299
H       -7.52637133       7.13112827       7.26953010
H       -8.11499003       3.64345214       4.33221107
H      -10.12480374       2.28306363       4.62376442
H      -10.62510855       3.83519386       8.60922651
H       -8.60153253       5.18576404       8.34882420
C        1.79148381      -1.79148381       1.79148381
C        2.85730829      -1.22690694       2.48835651
C        3.66318636      -2.03492195       3.29654864
C        3.40967238      -3.41094915       3.41362710
C        2.33182931      -3.96069884       2.70292368
C        1.52427552      -3.15498549       1.89425480
C        4.24825348      -4.26085199       4.25710705
N        4.01218546      -5.61957637       4.38558861
C        4.96369890      -5.97137602       5.19818191
S        5.47241486      -7.45602007       5.92135986
C        6.78402333      -6.57007245       6.71150820
C        6.79710776      -5.24712262       6.43093374
C        7.79310075      -4.29660437       6.95561091
C        8.23777265      -3.21491643       6.17878774
C        9.17748049      -2.30609576       6.67728255
C        9.68452144      -2.47089154       7.96205913
Br      10.95454783      -1.24559036       8.63709282
C        9.25748850      -3.53284570       8.75329643
C        8.31448548      -4.43763384       8.25317010
N        5.75521248      -4.92028285       5.56302352
N        5.30343242      -3.80010068       4.96202628
H        3.07064918      -0.16382198       2.41246478
H        4.49227427      -1.58110793       3.83687169
H        2.11330255      -5.02502081       2.77553981
H        0.69413921      -3.60158002       1.35314291
H        7.49166989      -7.09439261       7.34096720
H        7.86283441      -3.05958662       5.16823221
H        9.50120475      -1.47647257       6.05395447
H        9.64524332      -3.66386590       9.76041970
H        7.98667558      -5.24565321       8.90379198
C       -0.00445707       0.01189536      -1.78238275
H       -0.66409135       0.67374010      -2.43557963
H        0.65740317      -0.63156657      -2.45157240
C       -0.90989263      -0.90692880      -0.91072765
C        0.90977584       0.90977584      -0.90977584
C       -0.00465871       1.77757030       0.00794375
H       -0.66225468       2.44313916      -0.64384735
H        0.64322798       2.43503045       0.67728295
C       -1.78241447       0.00034974      -0.00472694
H       -2.45427497      -0.65498947       0.64260836
H       -2.43311707       0.67328779      -0.65473579
C       -0.91132561       0.90220522       0.91563759
C       -0.01476271      -0.02253852       1.78660255
H       -0.67934791      -0.69751639       2.42135241
H        0.63392994       0.61504881       2.47327442
C        0.01484550      -1.77751727      -0.01636693
H        0.67870853      -2.42144646      -0.68295456
H       -0.62264859      -2.45592969       0.64226336
C        1.78714474       0.01002794       0.00389507
H        2.44202412       0.67113390       0.66197326
H        2.45385902      -0.65136977      -0.64189061
C        0.91606151      -0.90478549       0.90901405
