129
Properties=species:S:1:pos:R:3 pbc="F F F"
C        0.00000000       0.00000000       0.00000000
C        0.88157979       0.88157979      -0.88157979
C        0.56075805       2.22579065      -1.05631097
C        1.36959128       3.03260319      -1.86275040
C        2.50313267       2.50215249      -2.49925140
C        2.80881585       1.14556742      -2.31135648
C        2.00187542       0.33661220      -1.50531612
C        3.35279525       3.34045919      -3.34324601
N        4.47536056       2.83468005      -3.97759776
C        4.91482734       3.88631582      -4.60240160
S        6.24959510       4.22386199      -5.64662563
C        5.67717689       5.89354424      -5.76517077
C        4.55936686       6.14091348      -5.04517170
C        3.88070215       7.44738332      -4.98751849
C        2.48269261       7.53079256      -4.88827958
C        1.83600511       8.76987587      -4.82526575
C        2.58349832       9.94240037      -4.86186136
C        3.97061369       9.88672559      -4.95657928
C        4.61451664       8.64577238      -5.01528834
N        4.13318692       4.98556438      -4.39005548
N        3.11420228       4.64935939      -3.57228563
H       -0.31173184       2.65680521      -0.57215049
H        1.10854215       4.08184287      -1.99015680
H        3.68186641       0.70859456      -2.79369013
H        2.25765697      -0.71144663      -1.37293973
H        6.20609398       6.60644082      -6.38478283
H        1.86858131       6.63189193      -4.86046793
H        0.75240474       8.80353941      -4.74597558
H        4.56108854      10.79921159      -4.97951672
H        5.70109974       8.63610286      -5.06920609
C        1.91962737      11.21864553      -4.79803610
C        1.36363545      12.28750085      -4.74458244
Br       0.46464354      14.01574950      -4.65815241
C       -0.88157979      -0.88157979      -0.88157979
C       -0.48369927      -2.18378363      -1.17537677
C       -1.29249519      -2.99076905      -1.98168064
C       -2.50291602      -2.50242133      -2.49919922
C       -2.88561413      -1.18769518      -2.19243043
C       -2.07887642      -0.37868881      -1.38623851
C       -3.35293713      -3.34117014      -3.34239319
N       -4.55060195      -2.87671587      -3.86032056
C       -4.96196644      -3.91269364      -4.52888467
S       -6.34334269      -4.27497343      -5.50176661
C       -5.66888579      -5.88648073      -5.78052539
C       -4.48727404      -6.09998589      -5.15819211
C       -3.71893963      -7.35431987      -5.24234445
C       -2.31498846      -7.34201491      -5.24476138
C       -1.58266311      -8.53199727      -5.31648636
C       -2.24936030      -9.75074627      -5.38765348
C       -3.64025554      -9.79015956      -5.38350345
C       -4.36962319      -8.59840613      -5.30754804
N       -4.09397054      -4.96384348      -4.45099277
N       -3.04324069      -4.61054844      -3.68205817
H        0.44909020      -2.58188659      -0.78442747
H       -0.97069431      -4.00705470      -2.20279282
H       -3.81923334      -0.78382881      -2.58108895
H       -2.39499292       0.63646841      -1.16062556
H       -6.19191148      -6.59229170      -6.41311444
H       -1.76304100      -6.40466347      -5.19323670
H       -0.49639167      -8.49178826      -5.31373979
H       -4.16740481     -10.73963474      -5.43277729
H       -5.45537870      -8.66443264      -5.28659736
C       -1.49735077     -10.97650596      -5.46245227
C       -0.86754280     -12.00307970      -5.52509625
Br       0.15080344     -13.66296261      -5.62638628
C       -0.88157979       0.88157979       0.88157979
C       -2.10793810       0.40055232       1.33436925
C       -2.91388851       1.20821361       2.14284275
C       -2.50020891       2.50049061       2.50383704
C       -1.26192680       2.96699179       2.03682116
C       -0.45395521       2.16138848       1.22846006
C       -3.33803621       3.34950150       3.34896275
N       -2.94550525       4.62601347       3.71611966
C       -3.95557263       5.00897326       4.43899886
S       -4.36720961       6.44445815       5.30841496
C       -5.89146288       5.67434755       5.77008148
C       -6.03743760       4.41870442       5.28931002
C       -7.22032713       3.57204782       5.52322899
C       -7.67995807       2.68546436       4.53634233
C       -8.79813972       1.87442627       4.75858075
C       -9.47098069       1.94266256       5.97411679
C       -9.03347681       2.81072930       6.96971244
C       -7.91235534       3.61752843       6.74569359
N       -4.92701614       4.05359795       4.52819269
N       -4.54136375       2.96739580       3.82708775
H       -2.44690013      -0.59707139       1.06739513
H       -3.86953386       0.81993476       2.49107320
H       -0.91721704       3.96546244       2.30147162
H        0.50187510       2.54254311       0.87848205
H       -6.61149089       6.21295892       6.37286782
H       -7.17753511       2.61031458       3.57309147
H       -9.12944970       1.19543879       3.97703123
H       -9.55115970       2.86451897       7.92413817
H       -7.58414421       4.27109427       7.55117022
C      -10.62258839       1.10936266       6.20435795
C      -11.58705983       0.41147399       6.39718492
Br     -13.14652858      -0.71695296       6.70896982
C        0.88157979      -0.88157979       0.88157979
C        2.20667228      -0.52108415       1.11510323
C        3.01276130      -1.32841596       1.92376761
C        2.50066832      -2.50005277       2.50381547
C        1.16364984      -2.84633998       2.25574992
C        0.35534255      -2.04074411       1.44771708
C        3.33815215      -3.34800773       3.35034058
N        2.84957871      -4.50627782       3.93178184
C        3.89549400      -4.93387363       4.57417713
S        4.24709554      -6.29780869       5.57517850
C        5.90089083      -5.69242233       5.74257875
C        6.12904417      -4.53473600       5.08167188
C        7.42529689      -3.83486902       5.05543804
C        7.84908693      -3.14320800       3.90946982
C        9.07585918      -2.47097294       3.88431462
C        9.89463979      -2.48438693       5.00873332
C        9.49600615      -3.15980387       6.15810854
C        8.26660676      -3.82768297       6.18128762
N        4.97710234      -4.11562674       4.41607770
N        4.63222573      -3.07864700       3.62497458
H        2.62287619       0.38214037       0.67648805
H        4.04632377      -1.03483393       2.09938412
H        0.74137614      -3.74989381       2.69288115
H       -0.67778869      -2.32750298       1.26943577
H        6.62664699      -6.24802525       6.32264539
H        7.23302298      -3.11603132       3.01188686
H        9.37656329      -1.94152754       2.98382889
H       10.12842933      -3.16910033       7.04228718
H        7.97523730      -4.32969040       7.10148099
C       11.15803220      -1.79384431       4.98443249
C       12.21612333      -1.21551487       4.96408054
Br      13.92696721      -0.28040507       4.93117317
