141
Properties=species:S:1:pos:R:3 pbc="F F F"
C        0.00000000       0.00000000       0.00000000
C        4.40292663       2.88807772      -3.83618178
O        3.26565660       3.43291546      -3.16441168
C        2.49583627       2.50400830      -2.50256859
C        1.89215328       3.01910891      -1.34354231
C        1.08958692       2.21449965      -0.53311409
C        0.88273126       0.88273126      -0.88273126
C        1.45730841       0.36375871      -2.03798510
C        2.25600049       1.16665736      -2.87125212
C        2.70445423       0.54898900      -4.12800628
H        2.34760855       1.01578375      -5.04169587
N        3.46557638      -0.55857400      -4.08175901
N        3.63517348      -1.06719742      -5.43260123
C        4.66998624      -1.92221449      -5.46180164
H        5.25011515      -2.22245803      -4.59437572
C        5.06789294      -2.51101691      -6.74743640
C        4.59645412      -3.82444512      -6.94756732
C        4.92012993      -4.53815745      -8.09828796
Br       4.30006558      -6.31190624      -8.32410470
C        5.71109433      -3.95871931      -9.08247444
C        6.18652634      -2.66011072      -8.89585825
C        5.88486821      -1.92351832      -7.73431022
O        6.51314645      -0.70023308      -7.74466054
C        6.11564313       0.24010171      -6.75115435
H        4.14645591       2.59352824      -4.85658645
H        4.88521365       2.08245964      -3.27255069
H        5.13795866       3.69598589      -3.92028900
H        2.06758661       4.05535571      -1.07318117
H        0.63957479       2.63062379       0.36047350
H        1.30017999      -0.67143392      -2.33870684
H        3.96319991      -4.25794459      -6.17635394
H        5.96465731      -4.49871597      -9.98715607
H        6.80513518      -2.19970659      -9.65991406
H        6.69045924       1.15423512      -6.93635875
H        6.39468739      -0.08839657      -5.74699576
H        5.06509410       0.51788894      -6.85951532
C       -3.19342369      -4.58849138      -3.34527106
O       -3.26598316      -3.16420856      -3.43279202
C       -2.50534952      -2.49665136      -2.50041228
C       -2.00296084      -1.27462012      -2.97722354
C       -1.19299167      -0.46879644      -2.17541255
C       -0.88273126      -0.88273126      -0.88273126
C       -1.38908552      -2.08041967      -0.38954703
C       -2.21797259      -2.89490544      -1.18103194
C       -2.79686028      -4.07052981      -0.51405941
H       -3.88024465      -4.08839776      -0.43644575
N       -1.97794123      -5.00706656      -0.00375360
N       -2.77294738      -5.96890499       0.74127508
C       -2.05605938      -7.08766150       0.93414748
H       -1.02397034      -7.22303351       0.62497101
C       -2.68823553      -8.22758089       1.61150400
C       -2.34680713      -8.34684546       2.97407628
C       -2.83035989      -9.39812281       3.74822225
Br      -2.32801707      -9.55071687       5.56646991
C       -3.67391632     -10.34959709       3.18866395
C       -4.01778360     -10.24481403       1.84032376
C       -3.52996530      -9.19905744       1.03336263
O       -3.94979711      -9.33906123      -0.26871558
C       -3.72877940      -8.23578117      -1.14233862
H       -3.95648226      -4.97474987      -2.66533848
H       -2.18870117      -4.94977872      -3.10174409
H       -3.43514243      -4.97943896      -4.33965215
H       -2.24128564      -0.96514055      -3.98969730
H       -0.81030599       0.46666813      -2.56608723
H       -1.17034404      -2.41946467       0.62235580
H       -1.70008294      -7.58401040       3.40248408
H       -4.06479271     -11.16886993       3.78056522
H       -4.67648524     -10.98393216       1.39507475
H       -4.15445415      -8.51375134      -2.11284761
H       -2.66408671      -8.06742560      -1.32177427
H       -4.27710510      -7.34964368      -0.81574959
C       -3.17514756       4.58594786       3.36609072
O       -3.26997546       3.16177428       3.43123399
C       -2.50540382       2.49672599       2.50028335
C       -2.02825052       1.26043200       2.96612198
C       -1.21834224       0.45448726       2.16437115
C       -0.88273126       0.88273126       0.88273126
C       -1.36396304       2.09498818       0.40010100
C       -2.19250313       2.91002796       1.19137887
C       -2.74397958       4.10386939       0.53360054
H       -3.82570209       4.13907061       0.44031546
N       -1.90382005       5.03547450       0.04946684
N       -2.67334915       6.01995711      -0.69272897
C       -1.93725946       7.13059197      -0.85827804
H       -0.90802547       7.24595337      -0.53194600
C       -2.54238327       8.28968575      -1.52775660
C       -2.17890621       8.42388782      -2.88321771
C       -2.63529805       9.49356296      -3.64860056
Br      -2.10363983       9.66539285      -5.45676864
C       -3.47301999      10.44919608      -3.08736660
C       -3.83850937      10.32971839      -1.74595389
C       -3.37826214       9.26501574      -0.94761777
O       -3.81540271       9.39208783       0.35008338
C       -3.62374095       8.27288067       1.21027758
H       -3.92218601       4.99354102       2.68084356
H       -2.16168522       4.93572388       3.14281489
H       -3.42591911       4.96577772       4.36253671
H       -2.28621490       0.93967175       3.97023685
H       -0.85535762      -0.49224528       2.54661275
H       -1.12515078       2.44559168      -0.60328954
H       -1.53715538       7.65786305      -3.31340918
H       -3.84289685      11.28284847      -3.67264791
H       -4.49283604      11.07196244      -1.29945583
H       -4.05973505       8.54285930       2.17845875
H       -2.56444431       8.08600479       1.40283749
H       -4.18011477       7.39994438       0.86243922
C        4.42809385      -2.90451095       3.79458133
O        3.25833307      -3.43552300       3.16912767
C        2.49580246      -2.50382045       2.50279025
C        1.84651400      -3.03307290       1.37521761
C        1.04378468      -2.22867737       0.56473861
C        0.88273126      -0.88273126       0.88273126
C        1.50293554      -0.34890416       2.00721252
C        2.30247327      -1.15086637       2.84057033
C        2.80212856      -0.51217871       4.06714223
H        2.45829795      -0.94406099       5.00272924
N        3.59129351       0.57219077       3.96965865
N        3.81196793       1.11219099       5.30080036
C        4.86989455       1.93864758       5.27832643
H        5.43362885       2.19915788       4.38756188
C        5.31906273       2.55067279       6.53592248
C        4.88898231       3.88159753       6.71219154
C        5.26360408       4.61685665       7.83351302
Br       4.69814741       6.41257354       8.02669016
C        6.06563856       4.04247559       8.81168650
C        6.50048412       2.72661339       8.64840313
C        6.14694556       1.96758826       7.51630281
O        6.74202027       0.72806933       7.54362298
C        6.29187062      -0.22735064       6.58767794
H        4.20807425      -2.57552362       4.81297272
H        4.91612896      -2.12809024       3.19600480
H        5.14310070      -3.72993476       3.88119809
H        1.98634430      -4.08070782       1.12907137
H        0.55808741      -2.65612576      -0.30448808
H        1.38221024       0.69798909       2.28323176
H        4.24650888       4.31152280       5.94662317
H        6.35868533       4.59945305       9.69386513
H        7.12739835       2.27001671       9.40796101
H        6.84671895      -1.15174645       6.78258770
H        6.55171531       0.06605518       5.56762645
H        5.23761679      -0.47286024       6.73202133
