153
Properties=species:S:1:pos:R:3 pbc="F F F"
C        0.00000000       0.00000000       0.00000000
C        0.88164152       0.88164152      -0.88164152
C        0.70161382       2.26480712      -0.87812685
C        1.50799588       3.07445315      -1.68436680
C        2.51818103       2.50037386      -2.46589865
C        2.66909578       1.10560519      -2.48474006
C        1.85399445       0.29636958      -1.69011350
C        3.42171218       3.30600902      -3.33663374
O        3.63573429       2.85641061      -4.46389336
N        3.96555205       4.52930216      -2.89230797
C        3.99449251       4.91153103      -1.51565609
C        4.48533768       4.02453711      -0.54665811
C        4.50266145       4.38668573       0.80307187
C        4.02279836       5.63520571       1.18959123
C        3.54037044       6.52897683       0.23788199
C        3.53587634       6.17117086      -1.11360704
C        4.83082886       5.25792599      -3.85032847
H        5.02348954       4.60407938      -4.70961432
C        6.18677046       5.55046604      -3.26081766
C        6.58354296       6.82597059      -3.28760379
S        5.39560528       7.83883461      -4.02395187
O        5.93015630       8.37482459      -5.26088058
O        4.81008954       8.69897103      -3.01627496
C        4.22917662       6.54342608      -4.41485555
H       -0.06502471       2.72091613      -0.25655075
H        1.33548830       4.14678109      -1.69203039
H        3.42213097       0.64601403      -3.12260892
H        1.98367459      -0.78285435      -1.71279241
H        4.88114128       3.05283169      -0.83171184
H        4.89150825       3.68957214       1.54060880
H        3.15835987       7.50373685       0.53305381
H        3.12012519       6.88055604      -1.82141630
H        6.80027728       4.75469935      -2.85563266
H        7.51679163       7.22055394      -2.92129902
H        4.15421787       6.49124771      -5.50669779
H        3.24810211       6.80018405      -4.01299187
C        4.02105056       6.00234720       2.58200068
C        4.01958678       6.30982819       3.74814359
Br       4.01721996       6.80699896       5.63369805
C       -0.88164152      -0.88164152      -0.88164152
C       -0.92434360      -0.66181873      -2.25838546
C       -1.73068049      -1.46810255      -3.06803279
C       -2.46541516      -2.51714319      -2.50189519
C       -2.43852119      -2.70866681      -1.11225303
C       -1.64405112      -1.89400383      -0.30242259
C       -3.33327449      -3.42252163      -3.30855882
O       -4.44006868      -3.68274923      -2.83322034
N       -2.90994787      -3.91747737      -4.55973693
C       -1.54497737      -3.89454775      -4.98215451
C       -0.53635816      -4.38178215      -4.13839259
C        0.80197446      -4.34862278      -4.53962698
C        1.13730605      -3.82173901      -5.78397988
C        0.14600224      -3.34220660      -6.63526093
C       -1.19384714      -3.38811174      -6.23869536
C       -3.86383563      -4.78944172      -5.28580597
H       -4.69744213      -5.02626125      -4.61347985
C       -3.24444579      -6.11831034      -5.63529803
C       -3.29761343      -6.47879464      -6.92070926
S       -4.09759641      -5.28453705      -7.87625831
O       -5.33396712      -5.83988066      -8.39201369
O       -3.13316172      -4.64485424      -8.74731958
C       -4.48334242      -4.16801776      -6.53609807
H       -0.33891279       0.13574058      -2.70926996
H       -1.77511452      -1.26507931      -4.13410595
H       -3.04051941      -3.49321799      -0.65701651
H       -1.63096281      -2.05533493       0.77268509
H       -0.78094331      -4.81369446      -3.17104704
H        1.57076003      -4.73534182      -3.87588980
H        0.40100356      -2.92368741      -7.60635907
H       -1.93406951      -2.97327607      -6.91475194
H       -2.79832987      -6.74219744      -4.87008197
H       -2.91644207      -7.38901305      -7.35318947
H       -5.57486252      -4.12701263      -6.45028823
H       -4.11770019      -3.16846571      -6.77511213
C        2.51758413      -3.76811458      -6.19086663
C        3.67356703      -3.72320413      -6.53163428
Br       5.54269361      -3.65058772      -7.08262675
C       -0.88164152       0.88164152       0.88164152
C       -0.31488043       1.94413021       1.58553716
C       -1.12021401       2.75326021       2.39334160
C       -2.49886473       2.51914266       2.46644614
C       -3.05221781       1.42869116       1.77853206
C       -2.24501424       0.61229499       0.98316830
C       -3.41635595       3.35139781       3.29660118
O       -4.26084861       2.74080976       3.95437989
N       -3.28960814       4.75549976       3.34205428
C       -2.54906094       5.49988644       2.37273225
C       -2.76533887       5.28771371       1.00348032
C       -2.03390511       6.00188113       0.05048907
C       -1.07839367       6.92645298       0.46356620
C       -0.85889618       7.15341300       1.81915611
C       -1.60048758       6.44836987       2.77179679
C       -4.23973729       5.47963076       4.21971527
H       -5.00148986       4.77025486       4.56543850
C       -4.99742023       6.53917780       3.46145612
C       -4.95538702       7.77550096       3.96622935
S       -4.01372364       7.83301130       5.41165682
O       -4.87927451       8.15756221       6.52902474
O       -2.79431935       8.57260353       5.15841264
C       -3.62093886       6.09142010       5.47509929
H        0.75096605       2.14729974       1.51610847
H       -0.65842386       3.55831085       2.95756507
H       -4.11552482       1.21131760       1.86391150
H       -2.68769985      -0.22780366       0.45371646
H       -3.52006882       4.58341225       0.66220375
H       -2.21777208       5.82935668      -1.00665717
H       -0.10990513       7.86979703       2.14934076
H       -1.37660450       6.62730831       3.81818472
H       -5.55397867       6.29096703       2.56566359
H       -5.43737980       8.65305132       3.56821347
H       -4.08971143       5.68450523       6.37794671
H       -2.54098320       5.96211534       5.55817948
C       -0.30951267       7.64859216      -0.51670775
C        0.33442516       8.25338372      -1.33768718
Br       1.37561817       9.23128053      -2.66514149
C        0.88164152      -0.88164152       0.88164152
C        1.56586911      -0.31940468       1.95927400
C        2.37362780      -1.12475467       2.76843335
C        2.46620833      -2.49949786       2.51874734
C        1.79813210      -3.04779905       1.41350988
C        1.00287656      -2.24034262       0.59725835
C        3.29739535      -3.41700186       3.34995774
O        3.97260231      -4.24611555       2.73732040
N        3.32451618      -3.30672366       4.75592234
C        2.33746905      -2.58688556       5.49732502
C        0.97357046      -2.81693890       5.26602354
C        0.00332343      -2.10565186       5.97730001
C        0.39371864      -1.15652953       6.91816467
C        1.74374137      -0.92359946       7.16412446
C        2.71365170      -1.64515730       6.46184523
C        4.20489036      -4.25498403       5.47920892
H        4.56826696      -5.00390577       4.76501050
C        3.44324070      -5.03444971       6.52036374
C        3.93264698      -5.00135012       7.76312023
S        5.36577983      -4.04323338       7.84937856
O        6.48958107      -4.89922468       8.17705571
O        5.08896827      -2.83598596       8.60038131
C        5.44528654      -3.62866705       6.11350466
H        1.48112010       0.74299810       2.17432016
H        2.92255267      -0.66602795       3.58571917
H        1.89896869      -4.10730005       1.18448517
H        0.48890619      -2.67912753      -0.25442106
H        0.64990102      -3.56711624       4.54866756
H       -1.04938109      -2.30004638       5.78980630
H        2.05624546      -0.17943908       7.89335837
H        3.75503843      -1.41095876       6.65610034
H        2.55728261      -5.59863603       6.25469066
H        3.53002806      -5.49865457       8.62996196
H        6.35854340      -4.08164949       5.71197048
H        5.51682959      -2.54630912       5.99813932
C       -0.60435572      -0.40822343       7.63752936
C       -1.44024300       0.21848292       8.23999729
Br      -2.79180203       1.23181408       9.21413698
