174
Properties=species:S:1:pos:R:3 pbc="F F F"
C        1.79154554       1.79154554      -1.79154554
C        1.61151784       3.17471115      -1.78803087
C        2.41789991       3.98435717      -2.59427082
C        3.42808505       3.41027789      -3.37580267
C        3.57899981       2.01550922      -3.39464408
C        2.76389848       1.20627360      -2.60001752
C        4.33161621       4.21591304      -4.24653776
O        4.54563831       3.76631463      -5.37379739
N        4.87545608       5.43920618      -3.80221200
C        4.90439654       5.82143505      -2.42556012
C        5.39524170       4.93444113      -1.45656213
C        5.41256547       5.29658976      -0.10683215
C        4.93270238       6.54510974       0.27968720
C        4.45027447       7.43888086      -0.67202204
C        4.44578036       7.08107488      -2.02351106
C        5.74073288       6.16783001      -4.76023249
H        5.93339356       5.51398340      -5.61951835
C        7.09667448       6.46037006      -4.17072168
C        7.49344698       7.73587462      -4.19750781
S        6.30550930       8.74873863      -4.93385590
O        6.84006032       9.28472861      -6.17078460
O        5.71999356       9.60887505      -3.92617899
C        5.13908065       7.45333011      -5.32475957
H        0.84487931       3.63082016      -1.16645477
H        2.24539232       5.05668511      -2.60193442
H        4.33203500       1.55591806      -4.03251294
H        2.89357861       0.12704968      -2.62269643
H        5.79104531       3.96273572      -1.74161586
H        5.80141228       4.59947616       0.63070477
H        4.06826389       8.41364088      -0.37685022
H        4.03002921       7.79046006      -2.73132033
H        7.71018131       5.66460337      -3.76553669
H        8.42669566       8.13045796      -3.83120304
H        5.06412189       7.40115174      -6.41660182
H        4.15800613       7.71008807      -4.92289590
C        4.93095458       6.91225122       1.67209665
C        4.92949080       7.21973222       2.83823957
Br       4.92712399       7.71690298       4.72379403
C       -1.79154554      -1.79154554      -1.79154554
C       -3.04834829      -1.33611769      -2.18979388
C       -3.85752570      -2.14147844      -2.99752376
C       -3.39156000      -3.38729056      -3.43531504
C       -2.13876489      -3.84762804      -3.00276017
C       -1.33699928      -3.04880712      -2.18438320
C       -4.19639093      -4.28906894      -4.30860715
O       -4.19666342      -5.48355728      -4.00552963
N       -4.93777261      -3.78261215      -5.39648950
C       -4.71184861      -2.48612046      -5.95342263
C       -3.41326670      -2.07993467      -6.29304360
C       -3.18378259      -0.80783092      -6.82437388
C       -4.25175884       0.06551624      -7.01188232
C       -5.54701748      -0.32707345      -6.68708643
C       -5.77747559      -1.60466510      -6.16822561
C       -5.72081748      -4.76649630      -6.18148160
H       -5.44102234      -5.77437938      -5.85149359
C       -5.36740074      -4.71461439      -7.64575110
C       -6.38373274      -4.54653612      -8.49656055
S       -7.89062540      -4.43530378      -7.66217465
O       -8.70806541      -5.58325799      -8.00425014
O       -8.39917280      -3.08352116      -7.77235365
C       -7.23592451      -4.66525838      -6.01598743
H       -3.40841838      -0.36016819      -1.87356766
H       -4.84510666      -1.78426996      -3.27463524
H       -1.78592363      -4.83331814      -3.30122422
H       -0.36732978      -3.41725445      -1.85874049
H       -2.56961477      -2.75482305      -6.17095907
H       -2.17197809      -0.51082808      -7.08737749
H       -6.38549066       0.35196599      -6.82523033
H       -6.79547901      -1.86152861      -5.89480198
H       -4.34089824      -4.82524658      -7.97417655
H       -6.32516850      -4.49217722      -9.57101094
H       -7.64872397      -5.60369048      -5.62946100
H       -7.56882109      -3.85012335      -5.37204565
C       -4.01476672       1.38393644      -7.54027887
C       -3.81628582       2.48811335      -7.98281098
Br      -3.49535899       4.27347404      -8.69834798
C       -1.79154554       1.79154554       1.79154554
C       -3.17994209       1.70446479       1.68985298
C       -3.98957039       2.51053178       2.49642573
C       -3.40739753       3.37690491       3.42986317
C       -2.00983910       3.47824940       3.50106460
C       -1.20173480       2.68325004       2.68520476
C       -4.21148515       4.25293838       4.32964349
O       -3.81511297       5.41271998       4.45791738
N       -5.37730045       3.77547359       4.96410021
C       -5.67960453       2.38425682       5.08753035
C       -4.71481714       1.49281534       5.57861248
C       -4.99922870       0.12885485       5.68790383
C       -6.24781910      -0.34975699       5.30006280
C       -7.21794622       0.52455971       4.81867142
C       -6.93728151       1.89076319       4.72232161
C       -6.11153672       4.74047596       5.81678270
H       -5.49762554       5.64273619       5.92653358
C       -6.29809544       4.21327020       7.21640059
C       -7.55021280       4.19448331       7.68213330
S       -8.66447012       4.80816981       6.51546391
O       -9.23986662       6.04292225       7.01278467
O       -9.49659693       3.72496051       6.03349017
C       -7.45683001       5.20126924       5.25907108
H       -3.64053513       1.01750145       0.98411766
H       -5.06828629       2.45152984       2.38419572
H       -1.54741115       4.18087847       4.19217637
H       -0.12012110       2.77046702       2.75273660
H       -3.74098577       1.85084361       5.90356751
H       -4.24215963      -0.54762736       6.07565139
H       -8.19352263       0.15705528       4.50817707
H       -7.70634662       2.53544511       4.31001787
H       -5.44938251       3.88599268       7.80494618
H       -7.87348784       3.86067811       8.65419072
H       -7.47005342       6.28841311       5.12340891
H       -7.74238722       4.73191907       4.31668381
C       -6.53582693      -1.75760470       5.39288692
C       -6.77703349      -2.93667716       5.47062712
Br      -7.16704409      -4.84313760       5.59632645
C        1.79154554      -1.79154554       1.79154554
C        1.49996417      -3.14899102       1.92530467
C        2.30606805      -3.95862489       2.73183496
C        3.42489991      -3.41466155       3.37460415
C        3.68988251      -2.04186968       3.25740091
C        2.87611870      -1.23092539       2.46314552
C        4.33349006      -4.22367661       4.23690034
O        4.68245820      -3.70458818       5.29870395
N        4.73445420      -5.52244173       3.85997833
C        4.61006010      -6.01647885       2.52485275
C        5.08362633      -5.25828475       1.44433389
C        4.95172017      -5.72916718       0.13510004
C        4.33948984      -6.95753448      -0.09889941
C        3.87219583      -7.72460942       0.96437211
C        4.01664099      -7.25903214       2.27469317
C        5.61907113      -6.24451170       4.80521255
H        5.93970069      -5.54257099       5.58462362
C        6.88910480      -6.70308179       4.13557963
C        7.18157932      -8.00230842       4.24294167
S        5.98512161      -8.84260124       5.16038099
O        6.58181194      -9.32142732       6.39233427
O        5.24455221      -9.72658644       4.28390895
C        4.96722494      -7.42140751       5.52853788
H        0.64668684      -3.58441251       1.41105489
H        2.04823626      -5.00724799       2.84852761
H        4.53138282      -1.60045982       3.78862335
H        3.09468479      -0.16919131       2.37944862
H        5.58088953      -4.30552653       1.60898083
H        5.32909419      -5.13159877      -0.69050929
H        3.38748006      -8.68244595       0.78882898
H        3.60892458      -7.86881725       3.07406778
H        7.52699273      -6.00044621       3.61288243
H        8.04347187      -8.50655177       3.83833302
H        4.99383384      -7.27411943       6.61392217
H        3.93676560      -7.62204111       5.23218340
C        4.18446143      -7.43515594      -1.44850821
C        4.05462513      -7.83516391      -2.57880559
Br       3.84469082      -8.48194297      -4.40640085
C       -0.00445707       0.01189536      -1.78238275
H       -0.66409135       0.67374010      -2.43557963
H        0.65740317      -0.63156657      -2.45157240
C       -0.90989263      -0.90692880      -0.91072765
C        0.90977584       0.90977584      -0.90977584
C       -0.00465871       1.77757030       0.00794375
H       -0.66225468       2.44313916      -0.64384735
H        0.64322798       2.43503045       0.67728295
C       -1.78241447       0.00034974      -0.00472694
H       -2.45427497      -0.65498947       0.64260836
H       -2.43311707       0.67328779      -0.65473579
C       -0.91132561       0.90220522       0.91563759
C       -0.01476271      -0.02253852       1.78660255
H       -0.67934791      -0.69751639       2.42135241
H        0.63392994       0.61504881       2.47327442
C        0.01484550      -1.77751727      -0.01636693
H        0.67870853      -2.42144646      -0.68295456
H       -0.62264859      -2.45592969       0.64226336
C        1.78714474       0.01002794       0.00389507
H        2.44202412       0.67113390       0.66197326
H        2.45385902      -0.65136977      -0.64189061
C        0.91606151      -0.90478549       0.90901405
