149
Properties=species:S:1:pos:R:3 pbc="F F F"
C        0.00000000       0.00000000       0.00000000
O        6.73239736       6.20510870       1.91662873
C        6.00763746       6.94212300       1.25930569
C        4.78054076       7.57652951       1.89233562
S        3.58996058       6.29376387       2.38015754
C        3.22274746       5.62962452       0.81702814
N        3.32958209       6.31559503      -0.30549320
C        2.95747299       5.41737721      -1.27345101
C        2.62049914       4.21092574      -0.70287705
O        2.78356822       4.34523549       0.64977526
C        2.15384804       2.92512917      -1.19262754
C        2.46358846       2.50354092      -2.49490074
C        1.98744962       1.28310468      -2.98318698
C        1.19060094       0.47251749      -2.17705049
C        0.88211995       0.88211995      -0.88211995
C        1.36177691       2.09520528      -0.38647331
N        6.21035129       7.30388267      -0.06855259
C        7.21383255       6.78792508      -0.91908303
C        7.95406463       5.64731463      -0.61031899
C        8.93251220       5.16942744      -1.48370927
C        9.17464284       5.83591070      -2.67878807
C        8.43921656       6.97208261      -3.01033605
C        7.45140046       7.44321367      -2.13568980
H        4.30413462       8.30862252       1.23412135
H        5.11248082       8.11361153       2.78849460
H        2.93260363       5.68980573      -2.31890289
H        3.08912424       3.11436933      -3.14264666
H        2.23773855       0.96575551      -3.99278177
H        0.81713471      -0.47178258      -2.56466899
H        1.10517097       2.40354860       0.62493404
H        5.57767059       7.98153844      -0.47235255
H        7.77733690       5.08185313       0.29911689
H        9.48975186       4.27684740      -1.21269579
H        8.63113490       7.49849754      -3.94169386
H        6.89908087       8.33855022      -2.40879554
C       10.18651925       5.33994597      -3.57529525
C       11.03396574       4.92457551      -4.32612002
Br      12.40421504       4.25295661      -5.54014016
O       -6.61114948      -6.33232481       1.92259696
C       -5.88552148      -7.04870845       1.24377515
C       -4.63992958      -7.67397685       1.84917178
S       -3.46118544      -6.38090414       2.33852267
C       -3.12712600      -5.68846282       0.78024497
N       -3.24059856      -6.35938048      -0.35069128
C       -2.89620735      -5.44158524      -1.31050862
C       -2.56852673      -4.23875721      -0.72701798
O       -2.70941209      -4.39534733       0.62573099
C       -2.12817759      -2.93908557      -1.20434159
C       -2.46346835      -2.50307201      -2.49548975
C       -2.01265122      -1.26862637      -2.97246368
C       -1.21586591      -0.45817868      -2.16612432
C       -0.88211995      -0.88211995      -0.88211995
C       -1.33645268      -2.10937693      -0.39762589
N       -6.10267912      -7.39389885      -0.08620857
C       -7.12620788      -6.88052202      -0.91411075
C       -7.87843427      -5.75573928      -0.57752470
C       -8.87671631      -5.27971520      -1.42921740
C       -9.12682376      -5.93210152      -2.63041633
C       -8.37980715      -7.05218357      -2.98964450
C       -7.37223919      -7.52133172      -2.13673303
H       -4.16268649      -8.38913128       1.17318199
H       -4.95053843      -8.22906125       2.74200193
H       -2.88293248      -5.69821983      -2.36015994
H       -3.08955151      -3.11357726      -3.14301145
H       -2.28260652      -0.94024337      -3.97342594
H       -0.86213954       0.49718065      -2.54506223
H       -1.06028707      -2.42868847       0.60519000
H       -5.46620123      -8.05603592      -0.50932442
H       -7.69649109      -5.20113039       0.33754835
H       -9.44290854      -4.39962447      -1.13676204
H       -8.57783838      -7.56765885      -3.92582908
H       -6.81095665      -8.40422099      -2.43124899
C      -10.15913775      -5.43816273      -3.50445999
C      -11.02370071      -5.02448900      -4.23647155
Br     -12.42162590      -4.35561357      -5.42007234
O       -0.04000860       1.80189303       9.17897569
C       -1.19747423       1.41338673       9.07959382
C       -1.50706488      -0.07347963       9.03114941
S       -0.78058626      -0.81917237       7.54215302
C       -1.66237995       0.04996581       6.32299808
N       -2.86030980       0.56623706       6.52412346
C       -3.16647187       1.15732404       5.32450531
C       -2.14411034       0.96757508       4.42261650
O       -1.17190901       0.24571812       5.06140131
C       -1.89975471       1.33381055       3.03803950
C       -2.51026473       2.46896579       2.48279959
C       -2.30650538       2.80590861       1.14132729
C       -1.49469770       2.00808385       0.33738736
C       -0.88211995       0.88211995       0.88211995
C       -1.07495794       0.54583980       2.22265775
N       -2.32416622       2.22785091       9.03076943
C       -2.31825181       3.63923636       8.96335249
C       -1.17473797       4.37714645       8.65981383
C       -1.21636049       5.77106901       8.59821942
C       -2.41196756       6.43636346       8.84101060
C       -3.56809685       5.71689799       9.13664039
C       -3.52463271       4.31753726       9.18813397
H       -2.58086061      -0.27661094       9.07438611
H       -1.05395661      -0.53343872       9.91707986
H       -4.10670798       1.66653006       5.16807420
H       -3.14350906       3.11242858       3.09020258
H       -2.78207484       3.69032978       0.72387122
H       -1.34593881       2.27084722      -0.70676490
H       -0.59480831      -0.34135896       2.63033618
H       -3.22936912       1.77714975       9.02504271
H       -0.22804411       3.89553028       8.43649874
H       -0.30704463       6.31492430       8.35732612
H       -4.50294492       6.23545844       9.33292294
H       -4.43550565       3.77764281       9.43327816
C       -2.44901930       7.87451681       8.77822437
C       -2.48005013       9.07897024       8.72564090
Br      -2.53022437      11.02646957       8.64061787
O        1.66866364      -0.14920806       9.20300562
C        2.82830614      -0.03775691       8.82439172
C        3.37376569       1.31841766       8.40938663
S        2.48922980       1.93109559       6.94543270
C        2.92854313       0.69700245       5.80380317
N        4.03374843      -0.01821650       5.89870539
C        3.97177624      -0.85964865       4.81687632
C        2.83047200      -0.61721503       4.08661490
O        2.15581394       0.39367217       4.71688666
C        2.23885793      -1.15794630       2.87480053
C        2.51161613      -2.47530703       2.47510696
C        1.97325356      -2.98897850       1.29150921
C        1.16068538      -2.18925505       0.49022848
C        0.88211995      -0.88211995       0.88211995
C        1.40966533      -0.36693640       2.06685376
N        3.76035963      -1.06806859       8.75435832
C        3.49555525      -2.43601786       8.98926754
C        2.20343741      -2.95638574       9.05187511
C        1.98861703      -4.31659009       9.28044179
C        3.07455451      -5.16742346       9.44736364
C        4.37393248      -4.66883823       9.37886451
C        4.58578706      -3.30476581       9.13975106
H        4.45095952       1.29402108       8.22169734
H        3.20525985       2.01041118       9.24274908
H        4.75467243      -1.57555876       4.61108106
H        3.13761832      -3.12286267       3.08565923
H        2.18888244      -4.01271346       0.99467993
H        0.75102146      -2.59164102      -0.43264136
H        1.18804350       0.65874330       2.35448534
H        4.70798168      -0.82715701       8.49642288
H        1.32916862      -2.33152367       8.89938085
H        0.96868040      -4.68901266       9.32160199
H        5.22467705      -5.33141661       9.51523264
H        5.60743394      -2.93574500       9.10324768
C        2.84741245      -6.56940942       9.68493860
C        2.65718098      -7.74357266       9.88390763
Br       2.34959278      -9.64209531      10.20562371
