170
Properties=species:S:1:pos:R:3 pbc="F F F"
O       11.39246416       1.57602281      -6.45338178
C       10.35802734       1.09102573      -6.90299543
C        9.18323395       0.78130712      -5.99234887
S        8.10112467       2.23204406      -5.89714022
C        6.88439884       1.62232186      -4.81708750
N        6.89946067       0.41143480      -4.29742023
C        5.75466374       0.36191612      -3.54119744
C        5.06626951       1.55156481      -3.63376199
O        5.79810800       2.37002181      -4.45462255
C        3.81783055       2.08190664      -3.10249800
C        3.39742204       3.38840212      -3.40018002
C        2.19032179       3.88816155      -2.90250929
C        1.38412477       3.08779356      -2.09718104
C        1.79228652       1.79228652      -1.79228652
C        2.99774069       1.28827630      -2.28659045
N       10.11612066       0.76455425      -8.22797991
C       10.99273327       0.88635640      -9.33192277
C       12.28389956       1.41306559      -9.22956162
C       13.11216505       1.50073277     -10.35425788
C       12.66262237       1.06319817     -11.59708552
C       11.37863852       0.53919928     -11.72122725
C       10.54968610       0.45479699     -10.59758362
H        9.57474612       0.52080203      -5.00288485
H        8.63104098      -0.08371241      -6.37623422
H        5.48757478      -0.52458936      -2.98319530
H        4.00761375       4.03492061      -4.02918775
H        1.88154061       4.90173042      -3.14688973
H        0.44547069       3.48091231      -1.71528630
H        3.28880451       0.27220731      -2.03347837
H        9.19915903       0.39494055      -8.45688946
H       12.68272934       1.77049349      -8.28521784
H       14.11330603       1.91427966     -10.25164440
H       13.31234941       1.13124268     -12.46581907
H       11.03364299       0.19918599     -12.69390894
C        9.23248638      -0.09751001     -10.78072805
C        8.12933161      -0.56006713     -10.93411150
Br       6.34562366      -1.30798285     -11.18211958
O       -3.06534397     -12.09961030      -4.25691447
C       -3.54446861     -11.52294912      -3.28463077
C       -2.95508155     -10.21536606      -2.78644232
S       -3.77217632      -8.83239648      -3.62573615
C       -2.92399798      -7.50244904      -2.89736118
N       -1.97032181      -7.63963744      -1.99835645
C       -1.61367019      -6.34901039      -1.69509673
C       -2.37616199      -5.45779736      -2.41763695
O       -3.22089281      -6.20211095      -3.19974860
C       -2.48240123      -4.00798981      -2.51184415
C       -3.39609944      -3.40107681      -3.38882793
C       -3.50733799      -2.00950255      -3.46415209
C       -2.70429524      -1.20203554      -2.66276858
C       -1.79228652      -1.79228652      -1.79228652
C       -1.67683658      -3.18223340      -1.71353747
N       -4.62686284     -11.94998744      -2.53180454
C       -5.38979154     -13.13101402      -2.69020689
C       -5.15736086     -14.06173231      -3.70743360
C       -5.93773389     -15.21890219      -3.81051962
C       -6.96110725     -15.46301474      -2.89878406
C       -7.21154101     -14.54674007      -1.88078397
C       -6.43361752     -13.38849612      -1.77995307
H       -1.88019251     -10.22019973      -2.99804076
H       -3.08600889     -10.13605967      -1.70149424
H       -0.83913283      -6.13508514      -0.97196275
H       -4.03757357      -4.00887340      -4.02527513
H       -4.22298642      -1.55926546      -4.14790888
H       -2.79707226      -0.12077588      -2.72382116
H       -0.95753231      -3.61420439      -1.02275349
H       -4.92926274     -11.35210529      -1.76962100
H       -4.37406367     -13.91893322      -4.44544378
H       -5.73947007     -15.92954869      -4.61021133
H       -7.56123366     -16.36538015      -2.98279735
H       -8.01155724     -14.74304314      -1.17213754
C       -6.73284752     -12.47561558      -0.70724131
C       -6.98345266     -11.71107813       0.19115479
Br      -7.38865996     -10.47488573       1.64378530
O       -3.34891048      12.13117257       3.94178569
C       -3.84044984      11.50362881       3.00796985
C       -3.22206545      10.20022377       2.53460071
S       -3.95926023       8.82080316       3.45024555
C       -3.08959502       7.49576698       2.73844620
N       -2.17325577       7.63355793       1.80150200
C       -1.78115844       6.34601888       1.53059998
C       -2.48555873       5.45543640       2.31060117
O       -3.32885179       6.19762332       3.09627726
C       -2.53624963       4.00714147       2.45884408
C       -3.39653091       3.40080906       3.38866422
C       -3.45496488       2.00982190       3.51620585
C       -2.65170541       1.20242009       2.71497386
C       -1.79228652       1.79228652       1.79228652
C       -1.72970678       3.18167135       1.66122931
N       -4.96298563      11.86547943       2.28018976
C       -5.76193908      13.02424041       2.42483296
C       -5.52795930      13.99845072       3.40011675
C       -6.34539762      15.13078967       3.49096841
C       -7.40792387      15.30627675       2.60870544
C       -7.66043056      14.34583918       1.63279531
C       -6.84532179      13.21242358       1.54432133
H       -2.14134811      10.24997842       2.70710646
H       -3.38764242      10.07744905       1.45847133
H       -1.02499997       6.13324157       0.78793919
H       -4.03696828       4.00846695       4.02628688
H       -4.12978730       1.55989537       4.24047810
H       -2.70335743       0.12148720       2.81682467
H       -1.05082009       3.61322879       0.93044131
H       -5.26996398      11.23043315       1.55059192
H       -4.71488416      13.90956745       4.11398906
H       -6.14517879      15.87619312       4.25785818
H       -8.03683855      16.18970135       2.68287126
H       -8.49110880      14.48863523       0.94699389
C       -7.14858521      12.25171405       0.51540515
C       -7.40256832      11.44711982      -0.34631215
Br      -7.81323752      10.14615900      -1.73963614
O       12.13143009      -3.35249081       3.93794784
C       11.40723533      -2.50024905       4.44456412
C       10.11750043      -2.07192659       3.76746291
S        8.76101895      -3.12805421       4.34123578
C        7.44946977      -2.44590465       3.42843378
N        7.58072299      -1.43866846       2.58892426
C        6.30615969      -1.22697868       2.12463893
C        5.42864915      -2.11312389       2.70982327
O        6.16719749      -2.90582820       3.54972667
C        3.99453635      -2.36099507       2.64670377
C        3.40022542      -3.38841633       3.39736244
C        2.02114631      -3.61241308       3.34743324
C        1.21390952      -2.81144797       2.54374187
C        1.79228652      -1.79228652       1.79228652
C        3.16979620      -1.56460131       1.83820993
N       11.64029526      -1.83215155       5.63620801
C       12.75049312      -1.95591068       6.50460865
C       13.80545879      -2.84470802       6.27635996
C       14.88427682      -2.91802147       7.16485742
C       14.92481775      -2.10433229       8.29375602
C       13.88227668      -1.21531807       8.54147030
C       12.80240180      -1.14460953       7.65505537
H       10.25153030      -2.16292450       2.68397821
H        9.90723026      -1.02101604       3.99531650
H        6.09173874      -0.44796805       1.40647393
H        4.00783927      -4.02824139       4.03564144
H        1.58016137      -4.41155446       3.93844493
H        0.14200947      -2.98868756       2.51097227
H        3.59230526      -0.75991118       1.24227374
H       10.93557609      -1.17043721       5.94497575
H       13.82239502      -3.50288772       5.41315793
H       15.69436344      -3.61712114       6.96774550
H       15.76731148      -2.16416725       8.97793242
H       13.91982811      -0.58273436       9.42417545
C       11.75240660      -0.20649513       7.95680268
C       10.87303562       0.57917569       8.20951606
Br       9.45116712       1.84953895       8.61813221
C       -0.00445707       0.01189536      -1.78238275
H       -0.66409135       0.67374010      -2.43557963
H        0.65740317      -0.63156657      -2.45157240
C       -0.90989263      -0.90692880      -0.91072765
C        0.90977584       0.90977584      -0.90977584
C       -0.00465871       1.77757030       0.00794375
H       -0.66225468       2.44313916      -0.64384735
H        0.64322798       2.43503045       0.67728295
C       -1.78241447       0.00034974      -0.00472694
H       -2.45427497      -0.65498947       0.64260836
H       -2.43311707       0.67328779      -0.65473579
C       -0.91132561       0.90220522       0.91563759
C       -0.01476271      -0.02253852       1.78660255
H       -0.67934791      -0.69751639       2.42135241
H        0.63392994       0.61504881       2.47327442
C        0.01484550      -1.77751727      -0.01636693
H        0.67870853      -2.42144646      -0.68295456
H       -0.62264859      -2.45592969       0.64226336
C        1.78714474       0.01002794       0.00389507
H        2.44202412       0.67113390       0.66197326
H        2.45385902      -0.65136977      -0.64189061
C        0.91606151      -0.90478549       0.90901405
