149
Properties=species:S:1:pos:R:3 pbc="F F F"
C        0.00000000       0.00000000       0.00000000
O       10.48256013       0.66611878      -5.54347775
C        9.44812332       0.18112171      -5.99309140
C        8.27332992      -0.12859691      -5.08244484
S        7.19122065       1.32214003      -4.98723620
C        5.97449482       0.71241783      -3.90718347
N        5.98955665      -0.49846922      -3.38751620
C        4.84475972      -0.54798790      -2.63129342
C        4.15636549       0.64166078      -2.72385796
O        4.88820398       1.46011778      -3.54471853
C        2.90792653       1.17200261      -2.19259397
C        2.48751802       2.47849810      -2.49027600
C        1.28041776       2.97825753      -1.99260527
C        0.47422075       2.17788953      -1.18727701
C        0.88238250       0.88238250      -0.88238250
C        2.08783666       0.37837228      -1.37668642
N        9.20621664      -0.14534977      -7.31807588
C       10.08282925      -0.02354762      -8.42201875
C       11.37399553       0.50316157      -8.31965760
C       12.20226103       0.59082875      -9.44435385
C       11.75271834       0.15329414     -10.68718149
C       10.46873450      -0.37070475     -10.81132323
C        9.63978207      -0.45510704      -9.68767960
H        8.66484209      -0.38910199      -4.09298083
H        7.72113696      -0.99361643      -5.46633020
H        4.57767076      -1.43449339      -2.07329128
H        3.09770972       3.12501658      -3.11928373
H        0.97163658       3.99182640      -2.23698571
H       -0.46443333       2.57100829      -0.80538227
H        2.37890048      -0.63769671      -1.12357434
H        8.28925501      -0.51496348      -7.54698544
H       11.77282531       0.86058947      -7.37531382
H       13.20340200       1.00437563      -9.34174038
H       12.40244539       0.22133865     -11.55591504
H       10.12373896      -0.71071803     -11.78400492
C        8.32258235      -1.00741404      -9.87082402
C        7.21942759      -1.46997115     -10.02420748
Br       5.43571964      -2.21788688     -10.27221555
O       -2.42499176     -11.22022805      -3.04693686
C       -2.91600273     -10.59512712      -2.11120657
C       -2.29903941      -9.29147589      -1.63666256
S       -3.04016280      -7.91175607      -2.54867800
C       -2.17154764      -6.58645103      -1.83609746
N       -1.25336888      -6.72427415      -0.90096060
C       -0.86301191      -5.43653030      -0.62852302
C       -1.57027169      -4.54582310      -1.40578943
O       -2.41363901      -5.28810894      -2.19129234
C       -1.62369541      -3.09736562      -1.55146209
C       -2.48660607      -2.49091849      -2.47876756
C       -2.54763927      -1.09981730      -2.60382398
C       -1.74439036      -0.29241204      -1.80258489
C       -0.88238250      -0.88238250      -0.88238250
C       -0.81720026      -2.27188027      -0.75381484
N       -4.03666815     -10.96014686      -1.38212774
C       -4.83388398     -12.12002666      -1.52738974
C       -4.59990959     -13.09216372      -2.50474139
C       -5.41556323     -14.22574533      -2.59613507
C       -6.47627339     -14.40456359      -1.71235700
C       -6.72874999     -13.44623206      -0.73437092
C       -5.91543182     -12.31157373      -0.64534908
H       -1.21853584      -9.33908229      -1.81110280
H       -2.46298103      -9.17082724      -0.56004246
H       -0.10594656      -5.22372829       0.11320621
H       -3.12709472      -3.09858129      -3.11633402
H       -3.22447151      -0.64980943      -3.32616774
H       -1.79806691       0.78860345      -1.90249376
H       -0.13632402      -2.70352328      -0.02493081
H       -4.34348163     -10.32687748      -0.65091786
H       -3.78821288     -13.00066490      -3.21985082
H       -5.21538401     -14.96949076      -3.36464324
H       -7.10380137     -15.28893692      -1.78696080
H       -7.55800561     -13.59162564      -0.04739460
C       -6.21857459     -11.35314799       0.38573024
C       -6.47245666     -10.55046643       1.24925917
Br      -6.88296249      -9.25259823       2.64551241
O       -0.37964669      10.13928351       6.17322647
C       -0.64115281       9.99937394       4.98180967
C       -0.25317644       8.73080507       4.24319635
S       -1.60393163       7.52888868       4.36777657
C       -0.90985594       6.21108291       3.47315729
N        0.28714651       6.24278252       2.92296761
C        0.40300176       5.01849514       2.31257185
C       -0.74227137       4.27692614       2.50268672
O       -1.59074273       5.04473053       3.25756704
C       -1.21696879       2.96180905       2.09374528
C       -2.48264834       2.49249121       2.48115256
C       -2.94186834       1.23681297       2.07259924
C       -2.14042192       0.42932368       1.26964170
C       -0.88238250       0.88238250       0.88238250
C       -0.41858758       2.13602625       1.28828154
N       -1.28574975      10.92108877       4.17210423
C       -1.75275916      12.21135974       4.51718148
C       -1.64688692      12.74451009       5.80541768
C       -2.11764898      14.03183432       6.08796032
C       -2.70051066      14.80502220       5.08766113
C       -2.81915405      14.29111012       3.79908880
C       -2.35162172      13.00305684       3.51767607
H        0.66325739       8.33632445       4.69565387
H       -0.04046154       8.96026217       3.19312701
H        1.29503668       4.74478033       1.76672500
H       -3.13055263       3.10434352       3.10711388
H       -3.92617609       0.89296848       2.38130411
H       -2.50386296      -0.54489290       0.95298717
H        0.56697215       2.46364901       0.96810125
H       -1.45865306      10.65421979       3.20840412
H       -1.20323285      12.18341142       6.62208433
H       -2.02522924      14.42668058       7.09760819
H       -3.06108878      15.80528932       5.31332099
H       -3.27482162      14.89957093       3.02263330
C       -2.49638880      12.52115395       2.16844959
C       -2.61763122      12.11756029       1.03847241
Br      -2.81366997      11.46498346      -0.78860512
O       11.22938256      -2.86912524       2.59364887
C       10.57535020      -1.95652001       3.09046622
C        9.27491904      -1.49577917       2.45647965
S        7.89960268      -2.45053778       3.15045642
C        6.57770253      -1.74711168       2.26928191
N        6.71473685      -0.79066397       1.37320282
C        5.42979596      -0.53629321       0.96197607
C        4.54119606      -1.34578927       1.63489890
O        5.28233174      -2.13335683       2.47735172
C        3.09526416      -1.52174259       1.65551636
C        2.49075519      -2.47868376       2.48685316
C        1.10157735      -2.63302835       2.51667487
C        0.29421522      -1.83187232       1.71329975
C        0.88238250      -0.88238250       0.88238250
C        2.26996901      -0.72447503       0.84845133
N       10.90257318      -1.24346537       4.23290420
C       12.04886955      -1.38167741       5.05075342
C       13.04546229      -2.33417679       4.81717563
C       14.16398932      -2.41945370       5.65400061
C       14.30311130      -1.55428783       6.73579485
C       13.31993177      -0.60125680       6.98816441
C       12.20033018      -0.51842060       6.15360386
H        9.34791225      -1.64692363       1.37388506
H        9.12882891      -0.42542040       2.63960142
H        5.21708345       0.21642965       0.21581485
H        3.09837145      -3.11691411       3.12672447
H        0.65297606      -3.37810112       3.16937151
H       -0.78537557      -1.95466842       1.74266437
H        2.70015997       0.02684788       0.19146602
H       10.24830806      -0.53166523       4.54130367
H       12.98512132      -3.03411200       3.98949528
H       14.92730032      -3.16850343       5.45371426
H       15.17598558      -1.62393667       7.37977683
H       13.43437024       0.07128322       7.83393884
C       11.21493975       0.48663577       6.45768837
C       10.38967526       1.32837049       6.71235914
Br       9.05529239       2.68938432       7.12414025
