162
Properties=species:S:1:pos:R:3 pbc="F F F"
O       11.39246416       1.57602281      -6.45338178
C       10.35802734       1.09102573      -6.90299543
C        9.18323395       0.78130712      -5.99234887
S        8.10112467       2.23204406      -5.89714022
C        6.88439884       1.62232186      -4.81708750
N        6.89946067       0.41143480      -4.29742023
C        5.75466374       0.36191612      -3.54119744
C        5.06626951       1.55156481      -3.63376199
O        5.79810800       2.37002181      -4.45462255
C        3.81783055       2.08190664      -3.10249800
C        3.39742204       3.38840212      -3.40018002
C        2.19032179       3.88816155      -2.90250929
C        1.38412477       3.08779356      -2.09718104
C        1.79228652       1.79228652      -1.79228652
C        2.99774069       1.28827630      -2.28659045
N       10.11612066       0.76455425      -8.22797991
C       10.99273327       0.88635640      -9.33192277
C       12.28389956       1.41306559      -9.22956162
C       13.11216505       1.50073277     -10.35425788
C       12.66262237       1.06319817     -11.59708552
C       11.37863852       0.53919928     -11.72122725
C       10.54968610       0.45479699     -10.59758362
Br       8.80789222      -0.27554401     -10.83976393
H        9.57474612       0.52080203      -5.00288485
H        8.63104098      -0.08371241      -6.37623422
H        5.48757478      -0.52458936      -2.98319530
H        4.00761375       4.03492061      -4.02918775
H        1.88154061       4.90173042      -3.14688973
H        0.44547069       3.48091231      -1.71528630
H        3.28880451       0.27220731      -2.03347837
H        9.19915903       0.39494055      -8.45688946
H       12.68272934       1.77049349      -8.28521784
H       14.11330603       1.91427966     -10.25164440
H       13.31234941       1.13124268     -12.46581907
H       11.03364299       0.19918599     -12.69390894
O       -4.29747369     -12.09410004      -3.03029500
C       -4.80714361     -11.31610513      -2.22879976
C       -4.09507513     -10.03757917      -1.82423564
S       -4.57056532      -8.70403485      -2.95570878
C       -3.63229342      -7.40260337      -2.28891141
N       -2.83925980      -7.52539486      -1.24366104
C       -2.33174113      -6.26251781      -1.06351836
C       -2.84499547      -5.39973773      -2.00686310
O       -3.68259860      -6.13651242      -2.80364135
C       -2.71331582      -3.98061848      -2.30830089
C       -3.39783283      -3.39985344      -3.38831792
C       -3.28252342      -2.03417808      -3.66429114
C       -2.47857895      -1.22705898      -2.86346143
C       -1.79228652      -1.79228652      -1.79228652
C       -1.90367766      -3.15640152      -1.51252825
N       -6.03277365     -11.47435638      -1.60152480
C       -6.94047098     -12.55358601      -1.71695546
C       -6.72085732     -13.65233768      -2.55333177
C       -7.64931992     -14.69737440      -2.62046138
C       -8.81014340     -14.65991536      -1.85284730
C       -9.04970980     -13.57279151      -1.01656374
C       -8.12318022     -12.52672448      -0.95216200
Br      -8.51346035     -11.07384561       0.21519381
H       -3.01526247     -10.21786004      -1.86531049
H       -4.35537235      -9.77551182      -0.79267863
H       -1.63666027      -6.04478135      -0.26473910
H       -4.03479170      -4.00758051      -4.02934990
H       -3.82295139      -1.60341320      -4.50379617
H       -2.39485858      -0.16546774      -3.08134298
H       -1.35779337      -3.56868688      -0.66800993
H       -6.33820136     -10.73143180      -0.98135588
H       -5.83379272     -13.73031633      -3.17433162
H       -7.45821900     -15.54262699      -3.27838410
H       -9.52544414     -15.47651596      -1.90745106
H       -9.95747374     -13.54949396      -0.41977022
O       -2.85752412      12.06132720       4.50301742
C       -3.32506504      11.52405528       3.50292818
C       -2.75728165      10.21456831       2.98503997
S       -3.63352506       8.83260956       3.76417433
C       -2.80144124       7.49982496       3.02254200
N       -1.82023268       7.63476451       2.15331851
C       -1.48989290       6.34339664       1.82448777
C       -2.29529618       5.45445049       2.50184963
O       -3.14098719       6.20050342       3.28126176
C       -2.44261154       4.00609581       2.55352783
C       -3.39576822       3.40126668       3.38896929
C       -3.54601350       2.01174204       3.42323710
C       -2.74313384       1.20423409       2.62173144
C       -1.79228652       1.79228652       1.79228652
C       -1.63778258       3.18016097       1.75466389
N       -4.37472817      12.00040427       2.73352238
C       -5.11000568      13.19721241       2.90379436
C       -4.88078659      14.09383171       3.95190847
C       -5.63261835      15.26874931       4.06578804
C       -6.62382695      15.56492067       3.13415843
C       -6.87063053      14.68324721       2.08518730
C       -6.12133676      13.50726328       1.97346667
Br      -6.51007787      12.34955983       0.51247444
H       -1.68883093      10.18438370       3.22521837
H       -2.86056466      10.16776833       1.89522981
H       -0.70184337       6.12769549       1.11664186
H       -4.03800105       4.00922155       4.02449950
H       -4.29181330       1.56320225       4.07514521
H       -2.86628369       0.12467323       2.65071238
H       -0.88862356       3.61053500       1.09533163
H       -4.67198120      11.43150511       1.94750273
H       -4.12203440      13.91008571       4.70632056
H       -5.43745040      15.95217945       4.88960023
H       -7.20180202      16.48079938       3.22680975
H       -7.64546863      14.92013394       1.36113535
O       11.58652024      -1.79936956       6.03597894
C       10.59367041      -1.25160980       6.50676828
C        9.39434416      -0.92933052       5.63321526
S        8.24967831      -2.33440478       5.64622586
C        7.01362437      -1.71789485       4.59228898
N        7.05648708      -0.53148390       4.02034472
C        5.88298011      -0.46380887       3.31098833
C        5.15033843      -1.61755220       3.48370568
O        5.88243818      -2.43214715       4.30816704
C        3.85901315      -2.11482318       3.02839885
C        3.39791724      -3.38830367       3.39978327
C        2.15058770      -3.85544487       2.97496006
C        1.34418580      -3.05503016       2.16988340
C        1.79228652      -1.79228652       1.79228652
C        3.03800366      -1.32097086       2.21363292
N       10.42333657      -0.86007589       7.82524237
C       11.34123855      -0.97378326       8.89599064
C       12.60369867      -1.55987686       8.76295125
C       13.47566318      -1.63654749       9.85494504
C       13.09912367      -1.12855299      11.09522940
C       11.84466614      -0.54457020      11.24982871
C       10.97192578      -0.47108490      10.15905603
Br       9.27420211       0.34366279      10.44157282
H        9.75301543      -0.72748382       4.61793375
H        8.89582707      -0.02591699       6.00181874
H        5.62903696       0.40946678       2.72661054
H        4.00741421      -4.03397322       4.03033467
H        1.81079388      -4.84359588       3.27577101
H        0.37428316      -3.42256425       1.84482190
H        3.35983702      -0.32991819       1.90473497
H        9.53336120      -0.44177865       8.07584919
H       12.94591497      -1.97328397       7.81924174
H       14.45332218      -2.09709785       9.72881005
H       13.78257280      -1.18853563      11.93830272
H       11.55669255      -0.14970484      12.22034053
C       -0.00445707       0.01189536      -1.78238275
H       -0.66409135       0.67374010      -2.43557963
H        0.65740317      -0.63156657      -2.45157240
C       -0.90989263      -0.90692880      -0.91072765
C        0.90977584       0.90977584      -0.90977584
C       -0.00465871       1.77757030       0.00794375
H       -0.66225468       2.44313916      -0.64384735
H        0.64322798       2.43503045       0.67728295
C       -1.78241447       0.00034974      -0.00472694
H       -2.45427497      -0.65498947       0.64260836
H       -2.43311707       0.67328779      -0.65473579
C       -0.91132561       0.90220522       0.91563759
C       -0.01476271      -0.02253852       1.78660255
H       -0.67934791      -0.69751639       2.42135241
H        0.63392994       0.61504881       2.47327442
C        0.01484550      -1.77751727      -0.01636693
H        0.67870853      -2.42144646      -0.68295456
H       -0.62264859      -2.45592969       0.64226336
C        1.78714474       0.01002794       0.00389507
H        2.44202412       0.67113390       0.66197326
H        2.45385902      -0.65136977      -0.64189061
C        0.91606151      -0.90478549       0.90901405
