149
Properties=species:S:1:pos:R:3 pbc="F F F"
C        0.00000000       0.00000000       0.00000000
C        0.88123816       0.88123816      -0.88123816
C        1.46887837       2.02544074      -0.34968437
C        2.27683126       2.82964708      -1.15964965
C        2.50944650       2.49051895      -2.49953705
C        1.90627114       1.34285733      -3.01993930
C        1.09329911       0.53849983      -2.21320072
N        3.33760744       3.35273076      -3.24957617
C        3.81652837       3.13749310      -4.52875942
O        3.68211124       2.12598175      -5.20564430
C        4.61224865       4.24883832      -5.10125812
C        4.33200512       5.59749704      -4.84949452
C        5.11534458       6.58253066      -5.45060459
C        6.14961595       6.16593111      -6.27704530
N        6.44322019       4.87071005      -6.56267371
C        5.65734887       3.94066325      -5.96805751
S        7.15333890       7.36590595      -7.13527981
O        6.27921142       8.47435518      -7.48273170
O        8.33363996       7.59877587      -6.32055599
C        7.68276357       6.63011568      -8.66811284
C        6.90921619       6.79846504      -9.82144891
C        7.32838763       6.21719618     -11.01977585
C        8.51645959       5.48523382     -11.05733544
Br       9.07457014       4.69119700     -12.67977962
C        9.29691531       5.33395154      -9.91009735
C        8.88346299       5.91349195      -8.70930148
H        1.30799554       2.29901411       0.68972081
H        2.72766766       3.71623143      -0.72135632
H        2.03983343       1.04692174      -4.05613066
H        0.63439193      -0.34993122      -2.63947786
H        3.67555020       4.16903614      -2.75641129
H        3.49194077       5.89344794      -4.22704837
H        4.91371867       7.63753481      -5.29141150
H        5.89931697       2.90798895      -6.21331371
H        5.98523132       7.37194440      -9.79777248
H        6.72496405       6.33960912     -11.91586181
H       10.22391666       4.76660234      -9.94062493
H        9.49113042       5.79209977      -7.81486413
C       -0.88123816      -0.88123816      -0.88123816
C       -0.29983743      -1.84900518      -1.69516086
C       -1.11046177      -2.65554428      -2.50012195
C       -2.50404284      -2.50646738      -2.48899230
C       -3.07153085      -1.52546800      -1.67206892
C       -2.26264057      -0.71349448      -0.86886461
N       -3.25159760      -3.35988569      -3.32843108
C       -4.62784849      -3.48822345      -3.36670895
O       -5.43909137      -2.95227848      -2.62236742
C       -5.14797134      -4.41418194      -4.40019180
C       -4.55673756      -4.56127020      -5.66098891
C       -5.12669703      -5.43604483      -6.58573798
C       -6.26619585      -6.12752900      -6.19886751
N       -6.88178197      -6.00020855      -4.99461344
C       -6.30585935      -5.13632851      -4.12388178
S       -7.09225575      -7.21362030      -7.34864862
O       -6.95698951      -6.61346633      -8.66584245
O       -6.59089740      -8.55566181      -7.10641262
C       -8.82867982      -7.19844996      -6.95386232
C       -9.67379051      -6.27582130      -7.57951832
C      -11.03393840      -6.26732518      -7.26409609
C      -11.53708232      -7.18332012      -6.33862642
Br     -13.37757599      -7.16107961      -5.90689115
C      -10.69601035      -8.11572707      -5.72922678
C       -9.33541775      -8.12965952      -6.04117915
H        0.77819313      -1.98586222      -1.70961975
H       -0.63389665      -3.40666387      -3.12469490
H       -4.14390693      -1.35760994      -1.64136895
H       -2.72612991       0.04322228      -0.24103095
H       -2.70792403      -3.99741322      -3.89566039
H       -3.68595458      -3.97822137      -5.94826112
H       -4.70441803      -5.55984420      -7.57840276
H       -6.81525809      -5.03859900      -3.16676254
H       -9.28682160      -5.56341006      -8.30471655
H      -11.69164510      -5.54598370      -7.74280617
H      -11.08896003      -8.83118771      -5.01099619
H       -8.68018010      -8.85492581      -5.56298840
C       -0.88123816       0.88123816       0.88123816
C       -1.68955787       0.30041225       1.85403336
C       -2.49453375       1.11104222       2.66055203
C       -2.48898375       2.50410587       2.50641289
C       -1.67766078       3.07098218       1.52042480
C       -0.87446751       2.26206025       0.70847190
N       -3.32803969       3.25171241       3.36016227
C       -3.37083378       4.62827169       3.48367542
O       -2.63136920       5.44024827       2.94211980
C       -4.40284689       5.14801220       4.41148599
C       -5.66095817       4.55277310       4.56526540
C       -6.58460374       5.12255638       5.44131971
C       -6.19936829       6.26593687       6.12728721
N       -4.99781615       6.88539567       5.99339213
C       -4.12812644       6.30949399       5.12844921
S       -7.34820775       7.09177055       7.21454636
O       -8.66705858       6.94958615       6.61965357
O       -7.09932285       6.59614761       8.55750135
C       -6.95976381       8.82954030       7.19168799
C       -7.59179543       9.66904632       6.26828839
C       -7.28132905      11.03028283       6.25374778
C       -6.35438968      11.54007067       7.16456850
Br      -5.92939927      13.38201629       7.13413120
C       -5.73859357      10.70458011       8.09779053
C       -6.04556891       9.34293106       8.11775645
H       -1.69962279      -0.77716121       1.99482726
H       -3.11466649       0.63494933       3.41563960
H       -1.65144628       4.14284763       1.34859191
H       -0.25104696       2.72506904      -0.05217743
H       -3.89099624       2.70830767       4.00169372
H       -5.94717798       3.67885634       3.98640275
H       -7.57528144       4.69715222       5.57023133
H       -3.17321505       6.82198294       5.02542164
H       -8.31815238       9.27689053       5.55990529
H       -7.76501298      11.68364533       5.53177667
H       -5.01921481      11.10270249       8.80922663
H       -5.56239910       8.69204992       8.84364529
C        0.88123816      -0.88123816       0.88123816
C        1.95226847      -1.57101155       0.32072345
C        2.75837509      -2.37631206       1.13144085
C        2.50523746      -2.48890254       2.50536251
C        1.42185172      -1.79601148       3.05120456
C        0.61035600      -0.99300292       2.24164073
N        3.36543247      -3.31987851       3.25460339
C        3.39331003      -3.45946144       4.63000942
O        2.73993676      -2.82515846       5.44864207
C        4.35825622      -4.45952414       5.14456472
C        4.65040193      -5.65395179       4.47464296
C        5.55197382      -6.55378637       5.04271963
C        6.12293397      -6.20963096       6.26002742
N        5.85318302      -5.07189343       6.95152750
C        4.96724640      -4.22445353       6.37436971
S        7.23358569      -7.33803031       7.08290866
O        6.75352606      -8.68112893       6.80164330
O        8.58536670      -6.95656552       6.71103960
C        7.05696320      -7.08697372       8.83705518
C        6.12733891      -7.84596789       9.55582334
C        5.99185678      -7.64291431      10.93058858
C        6.78999845      -6.69528107      11.57374933
Br       6.59559391      -6.41643038      13.43352247
C        7.73035270      -5.95204054      10.85857097
C        7.87099123      -6.15120344       9.48406176
H        2.16996526      -1.48812073      -0.74079716
H        3.59095511      -2.90252721       0.67177310
H        1.17245289      -1.86461820       4.10581474
H       -0.22707406      -0.46290904       2.68810360
H        4.08549083      -3.79216198       2.72334482
H        4.15911108      -5.91271225       3.54061374
H        5.78670564      -7.49708907       4.55887028
H        4.75479058      -3.32156818       6.94426087
H        5.50670024      -8.58872203       9.05952593
H        5.26442843      -8.22569141      11.49031514
H        8.35413823      -5.21646695      11.36053875
H        8.60217813      -5.56884879       8.92706739
