170
Properties=species:S:1:pos:R:3 pbc="F F F"
C        1.79114219       1.79114219      -1.79114219
C        2.37878239       2.93534476      -1.25958839
C        3.18673529       3.73955111      -2.06955368
C        3.41935053       3.40042298      -3.40944108
C        2.81617516       2.25276135      -3.92984333
C        2.00320313       1.44840385      -3.12310474
N        4.24751147       4.26263478      -4.15948020
C        4.72643239       4.04739712      -5.43866345
O        4.59201526       3.03588577      -6.11554832
C        5.52215268       5.15874234      -6.01116214
C        5.24190914       6.50740106      -5.75939854
C        6.02524861       7.49243469      -6.36050861
C        7.05951997       7.07583514      -7.18694932
N        7.35312422       5.78061408      -7.47257773
C        6.56725290       4.85056728      -6.87796154
S        8.06324292       8.27580998      -8.04518384
O        7.18911544       9.38425920      -8.39263572
O        9.24354399       8.50867989      -7.23046002
C        8.59266760       7.54001971      -9.57801687
C        7.81912022       7.70836906     -10.73135293
C        8.23829165       7.12710021     -11.92967987
C        9.42636362       6.39513784     -11.96723947
Br       9.98447416       5.60110102     -13.58968364
C       10.20681934       6.24385556     -10.82000138
C        9.79336701       6.82339597      -9.61920551
H        2.21789957       3.20891813      -0.22018322
H        3.63757169       4.62613546      -1.63126035
H        2.94973746       1.95682576      -4.96603468
H        1.54429595       0.55997281      -3.54938189
H        4.58545422       5.07894017      -3.66631532
H        4.40184479       6.80335196      -5.13695240
H        5.82362270       8.54743884      -6.20131553
H        6.80922099       3.81789298      -7.12321773
H        6.89513535       8.28184843     -10.70767650
H        7.63486808       7.24951314     -12.82576583
H       11.13382069       5.67650637     -10.85052895
H       10.40103444       6.70200380      -8.72476815
C       -1.79114219      -1.79114219      -1.79114219
C       -1.94854693      -1.48539329      -3.13977533
C       -2.75553525      -2.29586483      -3.94444000
C       -3.40044010      -3.41936603      -3.40940845
C       -3.23820976      -3.70834257      -2.05222751
C       -2.43504945      -2.89645440      -1.24320788
N       -4.19553241      -4.18676090      -4.28733314
C       -4.79458611      -5.40289363      -4.01501323
O       -4.67221790      -6.07345475      -2.99777671
C       -5.63402585      -5.95244659      -5.10558471
C       -6.40483247      -5.14904954      -5.95482674
C       -7.18843254      -5.75002283      -6.93973653
C       -7.15894799      -7.13476549      -7.02859095
N       -6.44120852      -7.95118782      -6.21391968
C       -5.69779828      -7.33428634      -5.26369709
S       -8.18517616      -7.98118836      -8.21787222
O       -9.42021296      -7.22166588      -8.32413153
O       -7.37078425      -8.21335976      -9.39853989
C       -8.61528247      -9.56614767      -7.52927403
C       -9.78527935      -9.69943342      -6.77412944
C      -10.11594129     -10.94421371      -6.23491673
C       -9.28413077     -12.04188900      -6.46272116
Br      -9.73049219     -13.72298362      -5.72178303
C       -8.12690636     -11.91162348      -7.23214643
C       -7.79152386     -10.66985343      -7.77459121
H       -1.44841276      -0.62404089      -3.57454726
H       -2.86052122      -2.03908773      -4.99535854
H       -3.73101782      -4.55598727      -1.58559280
H       -2.32317403      -3.14059530      -0.18988132
H       -4.25517065      -3.83966144      -5.23587762
H       -6.43605595      -4.06931645      -5.83677676
H       -7.81195502      -5.15775863      -7.60266341
H       -5.13518433      -8.00181960      -4.61332777
H      -10.43873378      -8.84785331      -6.59807319
H      -11.02046547     -11.04886795      -5.64081364
H       -7.48112069     -12.76761304      -7.41212227
H       -6.88738861     -10.56887101      -8.37154677
C       -1.79114219       1.79114219       1.79114219
C       -1.94667288       1.48674438       3.14029828
C       -2.75366778       2.29721328       3.94495901
C       -3.40045140       3.41937617       3.40938700
C       -3.24008578       3.70699742       2.05169664
C       -2.43692221       2.89510262       1.24268691
N       -4.19541851       4.18686499       4.28734295
C       -4.79615854       5.40200905       4.01432537
O       -4.67570265       6.07155464       2.99619207
C       -5.63498526       5.95184709       5.10522481
C       -6.40391839       5.14854098       5.95624938
C       -7.18708344       5.74974273       6.94136573
C       -7.15906819       7.13461774       7.02861850
N       -6.44317777       7.95092821       6.21221005
C       -5.70014515       7.33379210       5.26184446
S       -8.18490788       7.98122569       8.21810317
O       -9.41896169       7.22042607       8.32662261
O       -7.36944321       8.21565755       9.39758314
C       -8.61759028       9.56491524       7.52819865
C       -9.78859190       9.69601979       6.77423052
C      -10.12127524      10.93981273       6.23398376
C       -9.29045225      12.03868682       6.45960185
Br      -9.73955800      13.71843382       5.71726701
C       -8.13221033      11.91060424       7.22786171
C       -7.79480620      10.66983054       7.77133176
H       -1.44507051       0.62645234       3.57547807
H       -2.85717244       2.04150905       4.99628600
H       -3.73438260       4.55355395       1.58466135
H       -2.32651651       3.13817574       0.18895840
H       -4.25358902       3.84077380       5.23634689
H       -6.43405141       4.06864008       5.83945766
H       -7.80918297       5.15752477       7.60566933
H       -5.13902520       8.00122429       4.61008221
H      -10.44127943       8.84350119       6.59987966
H      -11.02658967      11.04276900       5.64078838
H       -7.48719212      12.76752803       7.40613585
H       -6.88988162      10.57054888       8.36737589
C        1.79114219      -1.79114219       1.79114219
C        2.27248704      -3.00118370       1.30004480
C        3.08079799      -3.80528251       2.10975957
C        3.41985960      -3.40110019       3.40825480
C        2.92252926      -2.18728541       3.88896517
C        2.10943711      -1.38251493       3.08275969
N        4.24089262      -4.26792663       4.16080719
C        4.81382486      -4.00678229       5.39188582
O        4.78525483      -2.94941600       6.00877852
C        5.57590544      -5.13045043       5.98570129
C        5.19848133      -6.47094115       5.83928626
C        5.95776118      -7.46625589       6.45417483
C        7.06677838      -7.06802396       7.18750209
N        7.45645434      -5.77956605       7.37029563
C        6.69173032      -4.83846215       6.76558924
S        8.04915130      -8.27606787       8.05901757
O        7.13358826      -9.30242046       8.53000165
O        9.15788351      -8.63396342       7.19083696
C        8.72045545      -7.48427777       9.50597095
C        8.01440165      -7.53176582      10.71267475
C        8.54483738      -6.90708369      11.84315067
C        9.77514397      -6.25265049      11.76094647
Br      10.48436332      -5.39925359      13.29164193
C       10.48743607      -6.22223865      10.56100156
C        9.96264208      -6.84571953       9.42760689
H        2.02831393      -3.32644757       0.29223941
H        3.44757882      -4.74419710       1.70319157
H        3.14064117      -1.83817423       4.89378249
H        1.73395169      -0.44196890       3.47773006
H        4.49594573      -5.13286657       3.70189741
H        4.30344558      -6.74917358       5.28952999
H        5.68248928      -8.51371486       6.37617292
H        7.01139954      -3.81062474       6.92830742
H        7.05767198      -8.04459624      10.78239206
H        7.99437240      -6.93547006      12.78030460
H       11.44724120      -5.71529297      10.49832184
H       10.51737883      -6.81852442       8.49190314
C       -0.00445707       0.01189536      -1.78238275
H       -0.66409135       0.67374010      -2.43557963
H        0.65740317      -0.63156657      -2.45157240
C       -0.90989263      -0.90692880      -0.91072765
C        0.90977584       0.90977584      -0.90977584
C       -0.00465871       1.77757030       0.00794375
H       -0.66225468       2.44313916      -0.64384735
H        0.64322798       2.43503045       0.67728295
C       -1.78241447       0.00034974      -0.00472694
H       -2.45427497      -0.65498947       0.64260836
H       -2.43311707       0.67328779      -0.65473579
C       -0.91132561       0.90220522       0.91563759
C       -0.01476271      -0.02253852       1.78660255
H       -0.67934791      -0.69751639       2.42135241
H        0.63392994       0.61504881       2.47327442
C        0.01484550      -1.77751727      -0.01636693
H        0.67870853      -2.42144646      -0.68295456
H       -0.62264859      -2.45592969       0.64226336
C        1.78714474       0.01002794       0.00389507
H        2.44202412       0.67113390       0.66197326
H        2.45385902      -0.65136977      -0.64189061
C        0.91606151      -0.90478549       0.90901405
