186
Properties=species:S:1:pos:R:3 pbc="F F F"
C        1.79184603       1.79184603      -1.79184603
C        3.17691256       1.77074336      -1.61969894
C        3.99076687       2.57786157      -2.41766977
C        3.41085191       3.40887059      -3.37665530
O        4.20832761       4.19341702      -4.16303705
C        2.02063647       3.43409273      -3.54202113
C        1.41235463       4.34470053      -4.53269796
N        0.16295336       4.26194088      -4.86975590
C       -0.33651596       5.17827309      -5.80989827
C       -1.60976125       5.71702515      -5.60112282
C       -2.16514407       6.62501482      -6.51081299
C       -1.45935363       7.00532132      -7.65288733
C       -0.18349053       6.47319688      -7.86364192
C        0.36009188       5.54993569      -6.96575750
N       -2.02583968       7.94425067      -8.53184297
C       -2.12487722       7.59425339      -9.77761259
C       -2.68004304       8.50968379     -10.79368070
C       -2.68285986       8.08623473     -12.12660787
C       -3.20300050       8.92759904     -13.11055143
C       -3.71988139      10.18012431     -12.77837305
C       -3.71283530      10.60136555     -11.44747816
C       -3.19122185       9.76939541     -10.45953360
O       -3.21033871      10.24801685      -9.17864751
C        1.20701331       2.61532397      -2.75199256
H        3.63005968       1.13014361      -0.86680433
H        5.06693354       2.54677752      -2.27370851
H        5.14077242       4.02829417      -3.94194309
H        2.08143003       5.10971976      -4.96673705
H       -2.17215620       5.42720958      -4.71738639
H       -3.15286205       7.03723539      -6.32409720
H        0.39688827       6.77563110      -8.73029044
H        1.33805018       5.12722101      -7.17671938
H       -1.79496632       6.59929900     -10.13195151
H       -2.28245895       7.11380717     -12.39945138
H       -4.12826549      10.83477229     -13.54412743
H       -4.11198270      11.57613981     -11.17918389
H       -2.78883101       9.56644003      -8.60558237
H        0.12733926       2.63411094      -2.88006051
C       -3.20524842       8.49731766     -14.48476134
C       -3.20713104       8.13695700     -15.63566214
Br      -3.21017509       7.55428431     -17.49657140
C       -1.79184603      -1.79184603      -1.79184603
C       -1.26787096      -2.33196172      -2.96752218
C       -2.06847774      -3.13487520      -3.78294527
C       -3.39257653      -3.38347384      -3.42032743
O       -4.17406939      -4.17581877      -4.21489351
C       -3.91819201      -2.83404380      -2.24451452
C       -5.33152079      -3.07045837      -1.88777395
N       -5.80939931      -2.76306881      -0.72218202
C       -7.16958044      -3.00937622      -0.47269874
C       -7.89749387      -2.05396912       0.24307628
C       -9.25308858      -2.25067422       0.53307906
C       -9.90501083      -3.41284676       0.11900258
C       -9.18268540      -4.36912483      -0.60153804
C       -7.82394630      -4.18099592      -0.87084285
N      -11.27434527      -3.56954842       0.39363974
C      -11.62488180      -4.64758211       1.02547515
C      -13.03830604      -4.92916993       1.34415452
C      -13.34180694      -6.14781006       1.95963426
C      -14.66828475      -6.44278089       2.27591569
C      -15.68925542      -5.53683062       1.98747007
C      -15.38364639      -4.32258725       1.37022522
C      -14.06245761      -4.02219158       1.04694203
O      -13.83614507      -2.81861014       0.43842955
C       -3.11184901      -2.04129900      -1.42118184
H       -0.23865472      -2.13213638      -3.25621651
H       -1.64437079      -3.55066553      -4.69238326
H       -3.64659374      -4.49942066      -4.96499529
H       -5.96464186      -3.51791202      -2.67533297
H       -7.40165350      -1.14540120       0.57461493
H       -9.80103164      -1.49100381       1.08356491
H       -9.67503902      -5.26861550      -0.95915529
H       -7.28220371      -4.95895769      -1.40082916
H      -10.88255612      -5.40197215       1.34824407
H      -12.55670483      -6.86296436       2.18886957
H      -16.72256368      -5.76469006       2.23661951
H      -16.17250162      -3.61104960       1.14021022
H      -12.87063578      -2.76304057       0.25048496
H       -3.51922394      -1.61454948      -0.50773730
C      -14.98612619      -7.69756558       2.90686118
C      -15.25231839      -8.74844775       3.43527804
Br     -15.68272866     -10.44763535       4.28968339
C       -1.79184603       1.79184603       1.79184603
C       -3.00827152       1.29555020       2.26353313
C       -3.82376506       2.09667185       3.06586131
C       -3.41991090       3.39406779       3.38239912
O       -4.21489940       4.17566884       4.17421343
C       -2.20290389       3.89236143       2.90148502
C       -1.80091701       5.27956244       3.20927367
N       -0.60587850       5.72111225       2.96765939
C       -0.31346711       7.05924531       3.27894297
C        0.46877089       7.79424601       2.38291158
C        0.80348343       9.12809146       2.64607571
C        0.36817544       9.75026542       3.81676503
C       -0.41863675       9.02100428       4.71370725
C       -0.73315844       7.68283710       4.45978954
N        0.68972098      11.10002670       4.03994824
C        1.29025180      11.38186483       5.15537573
C        1.65239653      12.76894311       5.50677488
C        2.22900626      12.99897005       6.76001895
C        2.58479702      14.29881422       7.12113275
C        2.37391070      15.36549352       6.24703315
C        1.79527629      15.13326137       4.99802334
C        1.43292430      13.83919678       4.63143468
O        0.86568533      13.68535838       3.39665260
C       -1.38015413       3.08479042       2.10938530
H       -3.32873838       0.28762790       2.01064133
H       -4.76537976       1.69408524       3.42795457
H       -4.99772465       3.66698776       4.44629727
H       -2.58064134       5.92628230       3.65096321
H        0.81743801       7.32132063       1.46855715
H        1.40563514       9.68248126       1.93162440
H       -0.79310653       9.49187044       5.61783285
H       -1.31534755       7.13308214       5.19356088
H        1.55253728      10.59792980       5.89089168
H        2.39783245      12.17768938       7.45094268
H        2.65391133      16.37801665       6.52652890
H        1.62567120      15.95817902       4.31083319
H        0.64241268      12.73126123       3.29434284
H       -0.43474832       3.47093837       1.73582403
C        3.17593367      14.54110787       8.41165638
C        3.67101062      14.74402880       9.49246992
Br       4.47150817      15.07213478      11.24005401
C        1.79184603      -1.79184603       1.79184603
C        1.41963031      -2.03217698       3.11554756
C        2.22265633      -2.83268949       3.93095240
C        3.39921930      -3.37938577       3.41777273
O        4.18145985      -4.16934358       4.21397825
C        3.77446497      -3.13035377       2.09193159
C        5.04055967      -3.68106759       1.56812586
N        5.33336742      -3.65613055       0.30515218
C        6.56651742      -4.18958387      -0.10444590
C        7.28814311      -3.51256236      -1.09231876
C        8.51704074      -4.00343734      -1.54979434
C        9.04403643      -5.18747927      -1.03266069
C        8.32858633      -5.86564483      -0.04088289
C        7.09140451      -5.38575025       0.39863031
N       10.29543323      -5.63973239      -1.48491166
C       10.34706734      -6.85013561      -1.95021419
C       11.61329538      -7.43867708      -2.42865100
C       11.60027968      -8.77399818      -2.84429512
C       12.78055525      -9.35881157      -3.30421686
C       13.96709501      -8.62679781      -3.35527685
C       13.97770660      -7.29506601      -2.93676419
C       12.80472704      -6.70488476      -2.47190464
O       12.88890239      -5.39975342      -2.07233015
C        2.96279269      -2.33986727       1.27166988
H        0.50741286      -1.59976755       3.51982720
H        1.91683114      -3.01311625       4.95747219
H        3.75999807      -4.26604533       5.08496629
H        5.73188662      -4.10988368       2.31611654
H        6.88807880      -2.59072288      -1.50636191
H        9.06442514      -3.45639466      -2.31234927
H        8.73159487      -6.77392657       0.39728837
H        6.54330507      -5.95491601       1.14376948
H        9.44807979      -7.49292771      -2.00472330
H       10.68355401      -9.35600421      -2.80875861
H       14.88629532      -9.08093496      -3.71659605
H       14.89764854      -6.71714852      -2.97145605
H       11.99684058      -5.13501585      -1.74866505
H        3.25336725      -2.14630365       0.24183982
C       12.77285337     -10.73430167      -3.73032445
C       12.76640304     -11.88627462      -4.08718956
Br      12.75597341     -13.74891746      -4.66421025
C       -0.00445707       0.01189536      -1.78238275
H       -0.66409135       0.67374010      -2.43557963
H        0.65740317      -0.63156657      -2.45157240
C       -0.90989263      -0.90692880      -0.91072765
C        0.90977584       0.90977584      -0.90977584
C       -0.00465871       1.77757030       0.00794375
H       -0.66225468       2.44313916      -0.64384735
H        0.64322798       2.43503045       0.67728295
C       -1.78241447       0.00034974      -0.00472694
H       -2.45427497      -0.65498947       0.64260836
H       -2.43311707       0.67328779      -0.65473579
C       -0.91132561       0.90220522       0.91563759
C       -0.01476271      -0.02253852       1.78660255
H       -0.67934791      -0.69751639       2.42135241
H        0.63392994       0.61504881       2.47327442
C        0.01484550      -1.77751727      -0.01636693
H        0.67870853      -2.42144646      -0.68295456
H       -0.62264859      -2.45592969       0.64226336
C        1.78714474       0.01002794       0.00389507
H        2.44202412       0.67113390       0.66197326
H        2.45385902      -0.65136977      -0.64189061
C        0.91606151      -0.90478549       0.90901405
