157
Properties=species:S:1:pos:R:3 pbc="F F F"
C        0.00000000       0.00000000       0.00000000
C        0.88194201       0.88194201      -0.88194201
C        2.26700853       0.86083933      -0.70979491
C        3.08086285       1.66795755      -1.50776575
C        2.50094789       2.49896657      -2.46675128
O        3.29842358       3.28351300      -3.25313302
C        1.11073244       2.52418871      -2.63211711
C        0.50245060       3.43479651      -3.62279393
N       -0.74695067       3.35203686      -3.95985188
C       -1.24641998       4.26836906      -4.89999424
C       -2.51966528       4.80712112      -4.69121879
C       -3.07504809       5.71511080      -5.60090896
C       -2.36925766       6.09541729      -6.74298330
C       -1.09339456       5.56329285      -6.95373790
C       -0.54981214       4.64003167      -6.05585347
N       -2.93574370       7.03434665      -7.62193894
C       -3.03478125       6.68434937      -8.86770856
C       -3.58994706       7.59977977      -9.88377667
C       -3.59276388       7.17633071     -11.21670385
C       -4.11290453       8.01769501     -12.20064740
Br      -4.11585652       7.45264337     -14.00527945
C       -4.62978541       9.27022028     -11.86846903
C       -4.62273932       9.69146153     -10.53757414
C       -4.10112588       8.85949139      -9.54962957
O       -4.12024273       9.33811282      -8.26874349
C        0.29710929       1.70541995      -1.84208854
H        2.72015565       0.22023958       0.04309970
H        4.15702951       1.63687350      -1.36380449
H        4.23086840       3.11839015      -3.03203907
H        1.17152601       4.19981574      -4.05683302
H       -3.08206022       4.51730556      -3.80748237
H       -4.06276608       6.12733136      -5.41419317
H       -0.51301575       5.86572708      -7.82038641
H        0.42814615       4.21731698      -6.26681535
H       -2.70487034       5.68939497      -9.22204749
H       -3.19236297       6.20390315     -11.48954736
H       -5.03816951       9.92486826     -12.63422341
H       -5.02188672      10.66623579     -10.26927987
H       -3.69873504       8.65653600      -7.69567835
H       -0.78256476       1.72420692      -1.97015649
C       -0.88194201      -0.88194201      -0.88194201
C       -0.48426311      -1.16332226      -2.19005740
C       -1.28693275      -1.96413846      -3.00551494
C       -2.48838886      -2.46994627      -2.50833060
O       -3.27048500      -3.26024055      -3.30434405
C       -2.88893450      -2.17974558      -1.19835818
C       -4.18022155      -2.68717537      -0.69264413
N       -4.50235024      -2.62443881       0.56185098
C       -5.75756848      -3.11819170       0.95381685
C       -6.48578832      -2.40024698       1.90736066
C       -7.73685816      -2.85037872       2.34626521
C       -8.28013072      -4.03379733       1.84478510
C       -7.55801774      -4.75283358       0.88721512
C       -6.29936471      -4.31343473       0.46672645
N       -9.55261916      -4.44492104       2.27699831
C       -9.64486476      -5.64202856       2.76961663
C      -10.93612738      -6.18836847       3.23088647
C      -10.96562721      -7.51307434       3.67843088
C      -12.17045510      -8.05818889       4.12320610
Br     -12.21778420      -9.85002951       4.72574740
C      -13.33964878      -7.29707606       4.12782093
C      -13.30776551      -5.97608473       3.67755389
C      -12.10998063      -5.42555212       3.22753767
O      -12.15271910      -4.12893015       2.79503567
C       -2.07798418      -1.38903704      -0.37759655
H        0.44761568      -0.76277585      -2.58213536
H       -0.96122585      -2.17681141      -4.01967024
H       -2.83087146      -3.38819587      -4.16223029
H       -4.86378882      -3.11752775      -1.44685820
H       -6.07331799      -1.47836999       2.30896027
H       -8.28874163      -2.27199098       3.08197415
H       -7.97252453      -5.66167964       0.46110644
H       -5.74772182      -4.91352451      -0.25103216
H       -8.76339355      -6.30454100       2.86136243
H      -10.06279805      -8.11745733       3.67916784
H      -14.27801296      -7.72022000       4.47731081
H      -14.21388874      -5.37573187       3.67599168
H      -11.24699921      -3.89350941       2.48702931
H       -2.38820748      -1.16351752       0.63992635
C       -0.88194201       0.88194201       0.88194201
C       -2.24759662       0.97991075       0.61013541
C       -3.06070930       1.78820139       1.40767545
C       -2.49845631       2.50142147       2.46678795
O       -3.29600178       3.28683231       3.25223551
C       -1.12686470       2.40763757       2.73253599
C       -0.53315334       3.19556678       3.83132092
N        0.67746564       2.99297108       4.24943263
C        1.16726693       3.79858328       5.29062698
C        2.48804566       4.25123333       5.21548697
C        3.03519967       5.04642010       6.22975124
C        2.27255336       5.39734763       7.34434868
C        0.94949257       4.95134864       7.42178013
C        0.41207319       4.13922250       6.41892369
N        2.83532694       6.22464442       8.33122440
C        2.81287732       5.77992593       9.55022808
C        3.35215608       6.57492640      10.67083906
C        3.22205755       6.05834276      11.96398546
C        3.72368527       6.78467983      13.04444333
Br       3.54727936       6.09355524      14.79579042
C        4.35279880       8.01421352      12.84748919
C        4.47837720       8.52878198      11.55589156
C        3.97626428       7.81218643      10.47207293
O        4.12811092       8.37822898       9.23649553
C       -0.31542609       1.58721104       1.94198064
H       -2.68604444       0.43155620      -0.22030511
H       -4.12205710       1.85044398       1.18520643
H       -4.21806315       3.21022355       2.95301092
H       -1.17727382       3.97685254       4.27404842
H        3.09466483       3.98287486       4.35451767
H        4.06128961       5.39364824       6.14639983
H        0.32720668       5.23486196       8.26544245
H       -0.60692803       3.77907400       6.52627645
H        2.38640067       4.79055713       9.80241566
H        2.73336614       5.10262822      12.13182545
H        4.74674509       8.57906631      13.68860093
H        4.96563944       9.48660163      11.39266675
H        3.70435184       7.77383589       8.58399527
H        0.74975464       1.51360521       2.14794808
C        0.88194201      -0.88194201       0.88194201
C        0.57506447      -1.02661026       2.23596804
C        1.37895322      -1.82644715       3.05118578
C        2.49149579      -2.46852118       2.50664876
O        3.27412670      -3.25768260       3.30326031
C        2.80174896      -2.31547544       1.14981386
C        4.00268982      -2.96737656       0.58997467
N        4.22207020      -3.02940616      -0.68653829
C        5.39780516      -3.65586769      -1.13172952
C        6.09672042      -3.07780654      -2.19585232
C        7.26776892      -3.66422365      -2.69102090
C        7.75789453      -4.84668108      -2.13543267
C        7.06530001      -5.42602800      -1.06769181
C        5.88433724      -4.85106346      -0.58932770
N        8.95380818      -5.39562859      -2.62889488
C        8.91120585      -6.63083076      -3.02475992
C       10.11284320      -7.31793869      -3.53717251
C       10.00180439      -8.67113036      -3.87266408
C       11.11905646      -9.34847326      -4.36209183
Br      10.97647695     -11.17925047      -4.81366111
C       12.33919954      -8.69103836      -4.52133400
C       12.44781152      -7.34112532      -4.18264050
C       11.33841707      -6.65858586      -3.68900784
O       11.51777762      -5.34053502      -3.37169906
C        1.98840414      -1.52539475       0.33081888
H       -0.28667036      -0.51992639       2.66403951
H        1.12418146      -1.93170319       4.10182286
H        2.89962267      -3.28131391       4.20036104
H        4.71183069      -3.39391342       1.32243066
H        5.72466003      -2.15843010      -2.64036243
H        7.79900398      -3.19308495      -3.51333047
H        7.44245493      -6.33073004      -0.60008723
H        5.35014900      -5.34517373       0.21695576
H        7.97643803      -7.22197990      -2.99184581
H        9.05797924      -9.19567927      -3.75257097
H       13.20920665      -9.21741487      -4.90569936
H       13.39466606      -6.82079312      -4.30183025
H       10.66215724      -5.00661122      -3.01528915
H        2.22850676      -1.40633543      -0.72304355
