198
Properties=species:S:1:pos:R:3 pbc="F F F"
C       -2.93879202       2.59696783      -7.83319478
C       -1.71427838       1.84961544      -7.33555608
N       -0.45310353       2.34468562      -7.89756863
C       -0.26621532       2.20296655      -9.34886350
C       -0.38702004       3.55265228     -10.04196621
C        0.64320012       2.48882633      -7.03714428
S        2.02180796       1.52797772      -7.14349101
S        0.38752215       3.83423748      -5.89926145
C        1.87805710       3.91315875      -4.97360048
C        3.02078132       4.65820330      -5.23863731
N        3.93877075       4.26270949      -4.28034437
H        4.89881877       4.56714269      -4.25414006
C        3.37839434       3.41513448      -3.35490264
C        3.94382976       2.82702093      -2.21693221
C        3.12125086       2.00885977      -1.43727942
C        1.79329741       1.79329741      -1.79329741
C        1.24928883       2.36975908      -2.94555705
C        2.06288552       3.19767677      -3.75003966
C        3.39434975       5.64582508      -6.26638476
C        2.92406838       5.56904484      -7.58289859
C        3.30240685       6.51469126      -8.54491738
C        4.17017228       7.54498810      -8.19907467
C        4.65446693       7.64499227      -6.89992936
C        4.26173962       6.70469917      -5.94096587
H       -3.84189997       2.20253920      -7.35408893
H       -3.06496294       2.48930671      -8.91419931
H       -2.86563148       3.66521239      -7.60449627
H       -1.79184301       0.78660400      -7.59817473
H       -1.68153264       1.88966741      -6.24023973
H       -1.00746817       1.49993442      -9.74668881
H        0.72087775       1.79020915      -9.57920079
H       -1.35508256       4.01960794      -9.84158967
H       -0.28155726       3.43548767     -11.12513322
H        0.39050987       4.24172335      -9.69542204
H        4.98009631       2.99716276      -1.94235923
H        3.53341960       1.54276255      -0.54538030
H        0.21286259       2.19089223      -3.21835292
H        2.26759621       4.76634526      -7.89701232
H        2.91669444       6.42887963      -9.55706907
H        5.33025999       8.44713523      -6.61927415
H        4.63616700       6.82494407      -4.92606449
C        4.56956866       8.51046894      -9.18999812
C        4.90406312       9.31905914     -10.01989650
Br       5.44491238      10.62648111     -11.36177201
C       -6.01483804      -5.18075038       3.70421783
C       -4.84156385      -5.39343798       2.76410869
N       -5.15989941      -6.23475946       1.60550815
C       -5.52784611      -7.63241713       1.87464851
C       -7.01911348      -7.84795582       1.65947085
C       -4.67726366      -5.84208382       0.35017675
S       -3.49963135      -6.70569713      -0.48794820
S       -5.51496977      -4.38029432      -0.22575699
C       -4.84609046      -4.09434331      -1.82438256
C       -5.30673437      -4.56144121      -3.04944636
N       -4.35463403      -4.15714806      -3.97004252
H       -4.36263241      -4.41298117      -4.94448794
C       -3.40226864      -3.34783006      -3.39833276
C       -2.30451860      -2.70256559      -3.98069870
C       -1.50193364      -1.91698976      -3.14846665
C       -1.79329741      -1.79329741      -1.79329741
C       -2.88039176      -2.46235528      -1.22185792
C       -3.70331047      -3.26407632      -2.04321516
C       -6.47111353      -5.35491704      -3.48052903
C       -7.01945040      -6.36967300      -2.68688841
C       -8.12065143      -7.11754929      -3.12381477
C       -8.67870860      -6.86345528      -4.37207117
C       -8.15383021      -5.86326976      -5.18228859
C       -7.06232242      -5.11131464      -4.73376760
H       -5.72270147      -4.52064893       4.52862224
H       -6.35693606      -6.12303382       4.14142679
H       -6.85977533      -4.72341891       3.17911706
H       -4.01513483      -5.87790197       3.30010108
H       -4.45860422      -4.42127116       2.43150088
H       -5.24690079      -7.89387986       2.90162558
H       -4.98706509      -8.31537543       1.21215284
H       -7.61428439      -7.18448334       2.29265268
H       -7.29255956      -8.88135906       1.89485499
H       -7.29728350      -7.64934320       0.61897144
H       -2.08008216      -2.80146623      -5.03806991
H       -0.64513875      -1.40101140      -3.57541230
H       -3.09644751      -2.36411295      -0.16154728
H       -6.59622647      -6.61468873      -1.72003860
H       -8.52476902      -7.89571988      -2.48215424
H       -8.58399276      -5.65538071      -6.15729590
H       -6.69076362      -4.31740596      -5.37900598
C       -9.80281653      -7.63968847      -4.82753071
C      -10.74425692      -8.28978378      -5.20897807
Br     -12.26648640      -9.34093290      -5.82574620
C        1.70797207       0.63050519       8.56883747
C        0.50082822       0.23451351       7.73720784
N       -0.74761034       0.87105812       8.17048226
C       -1.24047370       0.53180349       9.51333753
C       -1.03897726       1.69710969      10.47151150
C       -1.61152021       1.37058920       7.18706131
S       -3.12300562       0.69934382       6.87092725
S       -0.91591185       2.80715443       6.39795480
C       -2.15841847       3.33294143       5.27345644
C       -3.19204785       4.23639518       5.48917891
N       -3.95330254       4.19530520       4.33321688
H       -4.82521868       4.68484368       4.21003916
C       -3.36765267       3.41776230       3.36301649
C       -3.78437121       3.15007474       2.05333695
C       -2.96960928       2.32467747       1.27310330
C       -1.79329741       1.79329741       1.79329741
C       -1.40204497       2.05163669       3.11092331
C       -2.21146316       2.88057161       3.91856718
C       -3.59449586       5.09514090       6.61692284
C       -3.41499431       4.71002747       7.95099002
C       -3.81589295       5.54002537       9.00609716
C       -4.41521086       6.76512261       8.73390158
C       -4.60787329       7.17259276       7.41892252
C       -4.19279994       6.34439701       6.37020770
H        2.61063254       0.14878071       8.17657999
H        1.59686057       0.32294626       9.61245739
H        1.85916718       1.71472343       8.54852093
H        0.34799800      -0.85112564       7.79205935
H        0.69387558       0.46052579       6.68172429
H       -0.71969204      -0.36055624       9.88001927
H       -2.30797637       0.29158834       9.49072298
H        0.01312387       1.98852240      10.53071652
H       -1.37584123       1.42612983      11.47709257
H       -1.60731596       2.57474082      10.14559849
H       -4.70263229       3.56606318       1.65092283
H       -3.26712488       2.10372213       0.25071543
H       -0.48471606       1.62748161       3.50991007
H       -2.97589482       3.75208843       8.20297055
H       -3.65897824       5.21326571      10.03039918
H       -5.07238952       8.12831775       7.19596211
H       -4.33258223       6.70262563       5.35196770
C       -4.83893159       7.61370129       9.81740283
C       -5.19379770       8.32438594      10.72483513
Br      -5.76758619       9.47350291      12.19207640
C        6.91430145      -4.08100157      -3.50393243
C        5.68296787      -4.51858320      -2.73065793
N        5.97501568      -5.44965262      -1.63551758
C        6.52572531      -6.76239930      -2.00250988
C        8.00194500      -6.84733320      -1.64167975
C        5.32477951      -5.25433460      -0.40994338
S        4.17389214      -6.32394782       0.19543673
S        5.92674625      -3.78984889       0.40442594
C        5.06951913      -3.75824795       1.93704926
C        5.45266585      -4.31254231       3.15241378
N        4.37144808      -4.11557491       3.99480162
H        4.30883106      -4.47881548       4.93245498
C        3.39645627      -3.34802440       3.40395078
C        2.17841559      -2.88922615       3.92014116
C        1.38080675      -2.10006443       3.08651888
C        1.79329741      -1.79329741       1.79329741
C        3.00240661      -2.27794574       1.28425261
C        3.82306501      -3.07973915       2.10779778
C        6.64974821      -5.02668436       3.63012703
C        7.38867926      -5.88271349       2.80461905
C        8.51752643      -6.55892828       3.28556078
C        8.91222345      -6.39323651       4.60877509
C        8.19644043      -5.55109725       5.45185089
C        7.07789286      -4.86853607       4.96097573
H        6.63462942      -3.36448276      -4.28438402
H        7.40467946      -4.92721581      -3.99335218
H        7.64329395      -3.60255325      -2.84177002
H        4.97647718      -5.02070551      -3.40424698
H        5.15950500      -3.63507871      -2.34620922
H        6.38305808      -6.93227499      -3.07617801
H        6.00150842      -7.56826416      -1.47948489
H        8.57913323      -6.05850397      -2.13152215
H        8.41423023      -7.81365801      -1.94882461
H        8.14766132      -6.74139232      -0.56139837
H        1.85970838      -3.13064578       4.92926414
H        0.43153888      -1.72661905       3.46340452
H        3.31320822      -2.03769876       0.27120077
H        7.09738436      -6.05776271       1.77580672
H        9.07137858      -7.21328089       2.61798368
H        8.49799573      -5.41295691       6.48571673
H        6.55405154      -4.19570773       5.63741628
C       10.06504735      -7.09724441       5.10774395
C       11.03053736      -7.68685104       5.52563037
Br      12.59165306      -8.64019508       6.20131736
C       -0.00445707       0.01189536      -1.78238275
H       -0.66409135       0.67374010      -2.43557963
H        0.65740317      -0.63156657      -2.45157240
C       -0.90989263      -0.90692880      -0.91072765
C        0.90977584       0.90977584      -0.90977584
C       -0.00465871       1.77757030       0.00794375
H       -0.66225468       2.44313916      -0.64384735
H        0.64322798       2.43503045       0.67728295
C       -1.78241447       0.00034974      -0.00472694
H       -2.45427497      -0.65498947       0.64260836
H       -2.43311707       0.67328779      -0.65473579
C       -0.91132561       0.90220522       0.91563759
C       -0.01476271      -0.02253852       1.78660255
H       -0.67934791      -0.69751639       2.42135241
H        0.63392994       0.61504881       2.47327442
C        0.01484550      -1.77751727      -0.01636693
H        0.67870853      -2.42144646      -0.68295456
H       -0.62264859      -2.45592969       0.64226336
C        1.78714474       0.01002794       0.00389507
H        2.44202412       0.67113390       0.66197326
H        2.45385902      -0.65136977      -0.64189061
C        0.91606151      -0.90478549       0.90901405
