169
Properties=species:S:1:pos:R:3 pbc="F F F"
C        0.00000000       0.00000000       0.00000000
C       -3.84869604       1.68706380      -6.92329076
C       -2.62418240       0.93971141      -6.42565206
N       -1.36300756       1.43478160      -6.98766461
C       -1.17611935       1.29306253      -8.43895947
C       -1.29692407       2.64274825      -9.13206219
C       -0.26670390       1.57892230      -6.12724025
S        1.11190394       0.61807369      -6.23358698
S       -0.52238187       2.92433346      -4.98935743
C        0.96815308       3.00325472      -4.06369646
C        2.11087730       3.74829928      -4.32873328
N        3.02886673       3.35280546      -3.37044035
H        3.98891474       3.65723867      -3.34423604
C        2.46849032       2.50523046      -2.44499861
C        3.03392573       1.91711691      -1.30702818
C        2.21134684       1.09895574      -0.52737540
C        0.88339339       0.88339339      -0.88339339
C        0.33938481       1.45985506      -2.03565302
C        1.15298149       2.28777274      -2.84013564
C        2.48444572       4.73592106      -5.35648074
C        2.01416435       4.65914082      -6.67299456
C        2.39250282       5.60478723      -7.63501336
C        3.26026826       6.63508407      -7.28917064
Br       3.78436743       7.90201523      -8.58948830
C        3.74456290       6.73508825      -5.99002534
C        3.35183560       5.79479514      -5.03106184
H       -4.75180399       1.29263518      -6.44418490
H       -3.97486696       1.57940269      -8.00429529
H       -3.77553550       2.75530837      -6.69459225
H       -2.70174704      -0.12330002      -6.68827070
H       -2.59143666       0.97976339      -5.33033570
H       -1.91737220       0.59003040      -8.83678479
H       -0.18902627       0.88030512      -8.66929677
H       -2.26498659       3.10970391      -8.93168565
H       -1.19146129       2.52558365     -10.21522920
H       -0.51939415       3.33181933      -8.78551802
H        4.07019228       2.08725873      -1.03245521
H        2.62351558       0.63285852       0.36452372
H       -0.69704143       1.28098821      -2.30844890
H        1.35769218       3.85644124      -6.98710830
H        2.00679041       5.51897561      -8.64716504
H        4.42035596       7.53723121      -5.70937013
H        3.72626298       5.91504005      -4.01616046
C       -5.12300238      -4.25104119       4.61238505
C       -3.94825438      -4.46803038       3.67510369
N       -4.26594676      -5.31106225       2.51757036
C       -4.63728797      -6.70741719       2.78880250
C       -6.12855078      -6.92036034       2.57102475
C       -3.77995938      -4.92192842       1.26242915
S       -2.60238738      -5.78964164       0.42846441
S       -4.61351128      -3.45961494       0.68181720
C       -3.94080037      -3.17828379      -0.91602010
C       -4.39990262      -3.64693964      -2.14106760
N       -3.44510976      -3.24646101      -3.06054177
H       -3.45164753      -3.50426283      -4.03447910
C       -2.49226167      -2.43791824      -2.48853948
C       -1.39201654      -1.79607618      -3.06997811
C       -0.58952654      -1.01043985      -2.23771158
C       -0.88339339      -0.88339339      -0.88339339
C       -1.97300915      -1.54907270      -0.31281104
C       -2.79588783      -2.35079064      -1.13421141
C       -5.56501734      -4.43892246      -2.57290772
C       -6.11703438      -5.45094137      -1.77832398
C       -7.21886641      -6.19746526      -2.21597174
C       -7.77386447      -5.94478132      -3.46587718
Br      -9.24980482      -6.96158999      -4.06447615
C       -7.24530179      -4.94731887      -4.27705583
C       -6.15317823      -4.19667282      -3.82784153
H       -4.83119847      -3.58985643       5.43603882
H       -5.46790874      -5.19173382       5.05081154
H       -5.96593603      -3.79306325       4.08463417
H       -3.12390637      -4.95308088       4.21376361
H       -3.56263842      -3.49732441       3.34130041
H       -4.35896555      -6.96735717       3.81687972
H       -4.09655364      -7.39282284       2.12880087
H       -6.72365487      -6.25438954       3.20164143
H       -6.40458070      -7.95272337       2.80795251
H       -6.40419850      -6.72330342       1.52955872
H       -1.16563192      -1.89758796      -4.12668634
H        0.26918482      -0.49707650      -2.66395870
H       -2.19102042      -1.44823028       0.74685503
H       -5.69627813      -5.69484636      -0.81011724
H       -7.62587346      -6.97350288      -1.57355473
H       -7.67305571      -4.74054292      -5.25335867
H       -5.77869048      -3.40483825      -4.47393475
C        2.80916061      -0.02513935       7.59595847
C        1.59241068      -0.47088411       6.80447585
N        0.33940763       0.14575012       7.25309616
C       -0.11212083      -0.17185508       8.61563690
C        0.08352169       1.02147616       9.53993191
C       -0.56027971       0.59954239       6.27963656
S       -2.06182606      -0.11585262       6.01759118
S        0.08001357       2.03249309       5.43882949
C       -1.20211950       2.49982543       4.33315933
C       -2.25236443       3.38300947       4.55253597
N       -3.04019704       3.29470667       3.41720883
H       -3.92675538       3.75971968       3.30391438
C       -2.45910784       2.50771265       2.45189889
C       -2.90070645       2.19748830       1.15987607
C       -2.08484179       1.37295648       0.37987971
C       -0.88339339       0.88339339       0.88339339
C       -0.46682001       1.18385462       2.18421825
C       -1.27676683       2.01273361       2.99138944
C       -2.64855842       4.25952380       5.66876530
C       -2.42720068       3.91219009       7.00690896
C       -2.82289425       4.75820448       8.05120468
C       -3.45893606       5.96124154       7.76434537
Br      -4.00780814       7.09597296       9.17208987
C       -3.69353957       6.33107388       6.44506303
C       -3.28356954       5.48736367       5.40675937
H        3.71373847      -0.49442008       7.19317464
H        2.73110105      -0.30924578       8.64917785
H        2.93279736       1.06158844       7.54557403
H        1.46801347      -1.55821245       6.88944957
H        1.75409738      -0.26658126       5.73934106
H        0.43944774      -1.04191144       8.99080217
H       -1.17355117      -0.43840059       8.62542503
H        1.12917429       1.33972475       9.56585251
H       -0.22198733       0.76750035      10.55986388
H       -0.51421912       1.87667267       9.20705140
H       -3.83853019       2.58092371       0.77045232
H       -2.40149832       1.11947710      -0.62912504
H        0.47019208       0.79214961       2.57043814
H       -1.95841770       2.97175766       7.27106636
H       -2.63308081       4.46093446       9.07891579
H       -4.18696441       7.26939860       6.21059429
H       -3.45689667       5.81665032       4.38391650
C        6.03790238      -3.12485137      -4.40109523
C        4.80511630      -3.57130928      -3.63524451
N        5.09645071      -4.50593534      -2.54294740
C        5.65460758      -5.81458847      -2.91329340
C        7.12957917      -5.89459259      -2.54628538
C        4.43993654      -4.31894506      -1.31942294
S        3.29114690      -5.39632001      -0.72390230
S        5.03177951      -2.85544397      -0.49591447
C        4.16764748      -2.83444803       1.03300875
C        4.54787257      -3.39243766       2.24759963
N        3.46207341      -3.20400198       3.08603715
H        3.39692318      -3.57167969       4.02178657
C        2.48630384      -2.43815464       2.49426090
C        1.26396411      -1.98704892       3.00705780
C        0.46655215      -1.19772698       2.17339885
C        0.88339339      -0.88339339       0.88339339
C        2.09688508      -1.36041995       0.37758786
C        2.91744687      -2.16222656       1.20121644
C        5.74599154      -4.10339211       2.72746387
C        6.49236511      -4.95246608       1.90146854
C        7.62206739      -5.62581027       2.38442575
C        8.01016550      -5.46425614       3.71010133
Br       9.52411240      -6.38427348       4.36748508
C        7.28692351      -4.62904743       4.55370555
C        6.16753638      -3.94926725       4.06088896
H        5.75850464      -2.40611553      -5.17960408
H        6.53419709      -3.96670408      -4.89207016
H        6.76182433      -2.64612978      -3.73358900
H        4.10385147      -4.07355406      -4.31418189
H        4.27603610      -2.69184692      -3.24922059
H        5.51744874      -5.98032036      -3.98832611
H        5.13166831      -6.62508145      -2.39617415
H        7.70541762      -5.10104800      -3.03006265
H        7.54750995      -6.85770913      -2.85586752
H        7.27004193      -5.79281016      -1.46490889
H        0.94187109      -2.23435883       4.01367630
H       -0.48602434      -0.83016412       2.54771060
H        2.41109524      -1.11430018      -0.63299975
H        6.20640604      -5.12422837       0.87060731
H        8.18177059      -6.27473249       1.71642799
H        7.58328446      -4.49417035       5.58950249
H        5.63772209      -3.28177627       4.73796513
