86
Properties=species:S:1:pos:R:3 pbc="F F F"
C        1.79087943       1.79087943      -1.79087943
C        1.54948199       3.15959362      -1.86577022
C        2.35348592       3.97627989      -2.67310955
C        3.41146382       3.42544164      -3.40605663
C        3.63070885       2.03554306      -3.33039386
C        2.82717328       1.22356799      -2.52325310
N        4.26211895       4.20441551      -4.24299257
N        5.12329136       3.58398358      -5.09666747
N        5.73253217       4.53670572      -5.78064257
N        5.32601041       5.76990521      -5.36860520
C        4.44109089       5.57174530      -4.41383479
Br       3.73134221       7.01361934      -3.45568982
H        0.72931186       3.60443085      -1.30558034
H        2.08233290       5.02252263      -2.71525182
H        4.43552124       1.55628730      -3.88813752
H        3.02084322       0.15486028      -2.47701048
C       -1.79087943      -1.79087943      -1.79087943
C       -1.36105050      -2.14823905      -3.06555629
C       -2.16429405      -2.95671822      -3.88186308
C       -3.40283659      -3.41898932      -3.42113619
C       -3.82857110      -3.03378783      -2.13428685
C       -3.02435330      -2.22766977      -1.32197131
N       -4.26219082      -4.24288485      -4.20445138
N       -5.53990529      -4.47214104      -3.79189609
N       -6.11517519      -5.20704033      -4.72766494
N       -5.23581271      -5.50381636      -5.72489176
C       -4.09493649      -4.93273865      -5.39899584
Br      -2.55793112      -5.21469546      -6.42802480
H       -0.40268420      -1.79521259      -3.44142627
H       -1.78570812      -3.15990814      -4.87449109
H       -4.78809318      -3.35961343      -1.73223946
H       -3.37267730      -1.94959247      -0.33044420
C       -1.79087943       1.79087943       1.79087943
C       -3.17422632       1.64028667       1.76033285
C       -3.99116089       2.44583146       2.56588300
C       -3.42428360       3.40427749       3.41440100
C       -2.02310113       3.55349919       3.42004546
C       -1.21074242       2.74758291       2.61566905
N       -4.20266306       4.25124392       4.25562006
N       -3.61345891       5.30620345       4.88428005
N       -4.57044713       5.94191783       5.53751550
N       -5.76690896       5.30741688       5.39019498
C       -5.54271656       4.26095014       4.62300429
Br      -6.89837250       3.01616636       4.28611252
H       -3.63237002       0.90269118       1.10426186
H       -5.05796764       2.30229041       2.45984931
H       -1.53299096       4.29095343       4.05600168
H       -0.13183378       2.87794994       2.64293025
C        1.79087943      -1.79087943       1.79087943
C        2.61895065      -1.20932253       2.74657265
C        3.43205753      -2.01107440       3.55974342
C        3.41418897      -3.40438392       3.42438920
C        2.58165624      -3.97431003       2.44067951
C        1.77094832      -3.17157172       1.63147434
N        4.21752302      -4.27036588       4.22163814
N        4.32270200      -5.58807508       3.89316533
N        5.16593185      -6.12842600       4.75552262
N        5.58497020      -5.20965379       5.66989683
C        4.99147992      -4.07600198       5.35918908
Br       5.17100528      -2.57201410       6.45763200
H        2.64826289      -0.12771416       2.86334600
H        4.07979778      -1.48919327       4.25111631
H        2.53772555      -5.05301840       2.28920212
H        1.13261177      -3.63602075       0.88408145
C       -0.00445707       0.01189536      -1.78238275
H       -0.66409135       0.67374010      -2.43557963
H        0.65740317      -0.63156657      -2.45157240
C       -0.90989263      -0.90692880      -0.91072765
C        0.90977584       0.90977584      -0.90977584
C       -0.00465871       1.77757030       0.00794375
H       -0.66225468       2.44313916      -0.64384735
H        0.64322798       2.43503045       0.67728295
C       -1.78241447       0.00034974      -0.00472694
H       -2.45427497      -0.65498947       0.64260836
H       -2.43311707       0.67328779      -0.65473579
C       -0.91132561       0.90220522       0.91563759
C       -0.01476271      -0.02253852       1.78660255
H       -0.67934791      -0.69751639       2.42135241
H        0.63392994       0.61504881       2.47327442
C        0.01484550      -1.77751727      -0.01636693
H        0.67870853      -2.42144646      -0.68295456
H       -0.62264859      -2.45592969       0.64226336
C        1.78714474       0.01002794       0.00389507
H        2.44202412       0.67113390       0.66197326
H        2.45385902      -0.65136977      -0.64189061
C        0.91606151      -0.90478549       0.90901405
