73
Properties=species:S:1:pos:R:3 pbc="F F F"
C        0.00000000       0.00000000       0.00000000
C        0.88097541       0.88097541      -0.88097541
C        0.63957796       2.24968960      -0.95586620
C        1.44358189       3.06637586      -1.76320552
C        2.50155980       2.51553761      -2.49615261
C        2.72080483       1.12563904      -2.42048984
C        1.91726926       0.31366396      -1.61334908
N        3.35221493       3.29451149      -3.33308855
N        4.21338733       2.67407955      -4.18676345
N        4.82262815       3.62680170      -4.87073855
N        4.41610639       4.86000118      -4.45870118
C        3.53118687       4.66184128      -3.50393077
H       -0.18059216       2.69452683      -0.39567632
H        1.17242888       4.11261861      -1.80534780
H        3.52561722       0.64638328      -2.97823350
H        2.11093919      -0.75504374      -1.56710645
C        2.98494583       5.77154502      -2.76651749
C        2.52746896       6.70092190      -2.14893388
Br       1.78776756       8.20364572      -1.15035340
C       -0.88097541      -0.88097541      -0.88097541
C       -0.75221393      -0.82710565      -2.26581418
C       -1.55793429      -1.63248283      -3.08274616
C       -2.49452824      -2.50419078      -2.51453100
C       -2.62202209      -2.53341397      -1.11149764
C       -1.81598309      -1.72913503      -0.29916418
N       -3.34052429      -3.34645278      -3.29283790
N       -4.37660369      -4.00018159      -2.69744505
N       -5.01700625      -4.64853394      -3.65462821
N       -4.40334143      -4.47329353      -4.85817380
C       -3.36531349      -3.69355001      -4.63809541
H       -0.03181947      -0.15285656      -2.72493495
H       -1.43248800      -1.50805950      -4.14984779
H       -3.34208787      -3.18803628      -0.62010985
H       -1.92926810      -1.77478496       0.78105116
C       -2.42754661      -3.40371209      -5.69174965
C       -1.64216684      -3.16097283      -6.57418507
Br      -0.37227419      -2.76848397      -8.00100852
C       -0.88097541       0.88097541       0.88097541
C       -2.26648430       0.76901065       0.80963882
C       -3.08341077       1.57486578       1.61488674
C       -2.51464105       2.49465019       2.50395879
C       -1.11066707       2.60541946       2.55084717
C       -0.29835500       1.79928672       1.74664059
N       -3.29291349       3.33989951       3.34700196
N       -2.69327901       4.36135290       4.01959843
N       -3.65051228       5.00535991       4.66429619
N       -4.85892877       4.40784157       4.46803841
C       -4.64175393       3.37637848       3.67882650
H       -2.72598474       0.06184639       0.12177986
H       -4.15036382       1.46332216       1.47670930
H       -0.61867874       3.31210496       3.21945030
H        0.78248887       1.89942620       1.80606457
C       -5.70270008       2.45437446       3.36593380
C       -6.59124249       1.68219610       3.10388615
Br      -8.02794041       0.43364899       2.68017728
C        0.88097541      -0.88097541       0.88097541
C        0.41201766      -2.11714626       1.31596984
C        1.21442551      -2.93263066       2.12610711
C        2.49768786      -2.51591178       2.49965038
C        2.94928535      -1.25451375       2.06313461
C        2.14648959      -0.44359761       1.25419511
N        3.35855800      -3.30071874       3.32053822
N        4.49508298      -2.74922125       3.82992611
N        5.05746789      -3.67231020       4.59039030
N        4.34299489      -4.83180197       4.56001189
C        3.31338671      -4.61540308       3.76816912
H       -0.58426728      -2.45570114       1.03817712
H        0.76976111      -3.86023194       2.46040224
H        3.93678068      -0.87999436       2.33345896
H        2.52045036       0.52270077       0.92525231
C        2.41297555      -5.68538200       3.42465079
C        1.65888120      -6.58148935       3.13695420
Br       0.43957441      -8.03041914       2.67177313
