130
Properties=species:S:1:pos:R:3 pbc="F F F"
C        5.87389758       6.95404192      -1.69713520
C        5.09457850       7.51300743      -2.88310103
C        3.55072468       7.40265913      -2.76349570
C        3.05450491       8.25237915      -1.57633007
C        2.90380428       7.96918957      -4.04213083
N        3.11184111       6.01454249      -2.54705952
C        3.39550287       4.94696260      -3.37457695
O        4.03693063       5.07011044      -4.41445712
C        2.92239569       3.64908366      -2.91303475
S        1.74415436       3.47986459      -1.67679811
C        1.78329034       1.78329034      -1.78329034
C        2.67659640       1.34174702      -2.72321190
Br       3.07905639      -0.44913619      -3.17001135
C        3.32714890       2.41309995      -3.38903030
H        6.94887885       7.01385565      -1.89882852
H        5.63031523       5.90365375      -1.51112855
H        5.67972034       7.52339165      -0.78374523
H        5.44265148       6.99966424      -3.78706526
H        5.37603909       8.56597849      -3.01354072
H        3.39441658       9.29075089      -1.65923880
H        3.40646157       7.85486176      -0.61832600
H        1.95910662       8.26069722      -1.52980351
H        3.15026137       9.02909000      -4.17332956
H        1.81177791       7.88020862      -4.00357042
H        3.24041539       7.44175653      -4.94046420
H        2.59632161       5.80651644      -1.70077382
H        4.06967438       2.30549633      -4.17273224
C       -1.79652233      -5.49648462      -7.23206776
C       -3.07017624      -4.76946445      -7.65104627
C       -3.04787865      -3.23205394      -7.43694692
C       -1.96214668      -2.59420316      -8.32686428
C       -4.40530949      -2.64300943      -7.86680575
N       -2.76122066      -2.87377205      -6.03845041
C       -3.48764868      -3.28871433      -4.94067941
O       -4.48781255      -3.99431969      -5.03936595
C       -2.96599421      -2.87240910      -3.64611079
S       -1.80351637      -1.62148385      -3.47581684
C       -1.78329034      -1.78329034      -1.78329034
C       -2.62578487      -2.77055873      -1.34521173
Br      -2.91265831      -3.32506317       0.43778993
C       -3.32216759      -3.39367194      -2.41343961
H       -1.92863320      -6.57675639      -7.35617342
H       -1.55148313      -5.31183547      -6.18177893
H       -0.94229862      -5.19813423      -7.84642438
H       -3.90865740      -5.21646019      -7.10426339
H       -3.25754243      -4.98758248      -8.71043338
H       -2.09718904      -2.86801169      -9.37920554
H       -0.95607444      -2.90162746      -8.02194742
H       -1.99077838      -1.50029137      -8.25853761
H       -4.59631047      -2.82588287      -8.93048759
H       -4.43455428      -1.55963449      -7.70136817
H       -5.23793950      -3.07914618      -7.30555044
H       -1.93896701      -2.31330508      -5.85133978
H       -4.04376388      -4.19687597      -2.30726311
C       -2.81525137       3.70363086       8.00619247
C       -4.29541163       3.40736070       7.78791463
C       -4.59498027       2.07845593       7.04344331
C       -4.11132217       0.88304974       7.88884221
C       -6.11842491       1.93331474       6.86338503
N       -3.92286329       2.01502267       5.73555716
C       -4.06699549       2.93407258       4.71597435
O       -4.81574532       3.90354863       4.80220423
C       -3.23728924       2.70646214       3.54076273
S       -2.45816339       1.20840265       3.23425102
C       -1.78329034       1.78329034       1.78329034
C       -2.12309462       3.08631337       1.53214734
Br      -1.58874716       4.14766577       0.06351861
C       -2.97351661       3.62101582       2.53474671
H       -2.69941813       4.68650773       8.47563715
H       -2.26203072       3.72074934       7.06231748
H       -2.35095737       2.96743958       8.66846027
H       -4.73175157       4.25342112       7.24420829
H       -4.79166555       3.39689430       8.76699845
H       -4.54378888       0.90524164       8.89537574
H       -3.02055350       0.87148469       7.98761114
H       -4.39482726      -0.06804813       7.42282823
H       -6.62860109       1.89151171       7.83256814
H       -6.36447199       1.01696776       6.31411720
H       -6.54707548       2.77126952       6.30429113
H       -3.26372463       1.26295226       5.57693498
H       -3.37326467       4.62958242       2.54505587
C        6.05805146      -6.80220885       1.66481439
C        5.25860832      -7.43029991       2.80177873
C        3.71687453      -7.36946555       2.63053944
C        3.29317189      -8.19260424       1.39743799
C        3.04671414      -8.00384678       3.86456376
N        3.23605730      -5.99055381       2.44683201
C        3.45212570      -4.94426260       3.32065412
O        4.06102571      -5.08241578       4.37805669
C        2.94890193      -3.64783488       2.88777729
S        1.80902979      -3.47526070       1.61652656
C        1.78329034      -1.78329034       1.78329034
C        2.62688419      -1.34510084       2.76957029
Br       2.94878175       0.44143369       3.29258349
C        3.29206622      -2.41647592       3.42073700
H        7.12682574      -6.83183362       1.90290366
H        5.78339985      -5.75490702       1.50679066
H        5.91639142      -7.34468943       0.72577637
H        5.55631659      -6.93806461       3.73499978
H        5.57311595      -8.47686232       2.90558003
H        3.66718410      -9.22084070       1.45638147
H        3.66367830      -7.74883239       0.46713863
H        2.20106518      -8.23732605       1.31121612
H        3.32648542      -9.05857439       3.96762112
H        1.95419267      -7.95156135       3.78980292
H        3.33266310      -7.49773499       4.79223804
H        2.74311778      -5.77022538       1.59026871
H        4.00253187      -2.31142216       4.23394892
C       -0.00445707       0.01189536      -1.78238275
H       -0.66409135       0.67374010      -2.43557963
H        0.65740317      -0.63156657      -2.45157240
C       -0.90989263      -0.90692880      -0.91072765
C        0.90977584       0.90977584      -0.90977584
C       -0.00465871       1.77757030       0.00794375
H       -0.66225468       2.44313916      -0.64384735
H        0.64322798       2.43503045       0.67728295
C       -1.78241447       0.00034974      -0.00472694
H       -2.45427497      -0.65498947       0.64260836
H       -2.43311707       0.67328779      -0.65473579
C       -0.91132561       0.90220522       0.91563759
C       -0.01476271      -0.02253852       1.78660255
H       -0.67934791      -0.69751639       2.42135241
H        0.63392994       0.61504881       2.47327442
C        0.01484550      -1.77751727      -0.01636693
H        0.67870853      -2.42144646      -0.68295456
H       -0.62264859      -2.45592969       0.64226336
C        1.78714474       0.01002794       0.00389507
H        2.44202412       0.67113390       0.66197326
H        2.45385902      -0.65136977      -0.64189061
C        0.91606151      -0.90478549       0.90901405
