134
Properties=species:S:1:pos:R:3 pbc="F F F"
C        1.79251374       1.79251374      -1.79251374
C        2.33091061       1.26990687      -2.96764093
C        3.14875045       2.06928881      -3.76417651
C        3.41751251       3.38461534      -3.38291711
C        2.85930899       3.91268764      -2.21607988
O        3.19884684       5.20862846      -1.94203465
C        2.23521553       5.95597761      -1.18820941
C        2.56406700       7.44708225      -1.32111592
N        2.31901675       7.95545604      -2.67401231
C        3.35994094       7.97343303      -3.59281919
C        3.17518724       8.38400449      -4.85599304
Br       4.55212063       8.40889036      -6.10990982
C        1.86177854       8.82044865      -5.27237026
C        0.82925634       8.79565518      -4.41809534
C        1.01868849       8.31891611      -3.02091702
O        0.05469500       8.26561839      -2.26301694
C        2.05372643       3.10939378      -1.40906253
H        2.12460519       0.24567300      -3.26648333
H        3.57719495       1.67062612      -4.68013157
H        4.05609679       4.00699341      -4.00525383
H        2.31373688       5.67282189      -0.13227819
H        1.21793808       5.76058023      -1.54933901
H        3.61120328       7.63598522      -1.05565482
H        1.93857693       8.01405999      -0.62153266
H        4.32883295       7.62826628      -3.24116503
H        1.71897972       9.16634126      -6.29086257
H       -0.16947350       9.10770413      -4.69406758
H        1.63759907       3.48455647      -0.48053776
C       -1.79251374      -1.79251374      -1.79251374
C       -2.51842193      -1.21605172      -2.83398475
C       -3.33569097      -2.01791931      -3.62860548
C       -3.41689464      -3.38868877      -3.37946154
C       -2.67183436      -3.96732631      -2.34891584
O       -2.83765660      -5.31600115      -2.19585220
C       -1.71801630      -6.01949413      -1.64189212
C       -1.90082929      -7.51658187      -1.91485402
N       -1.76528966      -7.84651275      -3.33668270
C       -2.89988020      -7.89035922      -4.13595373
C       -2.82359016      -8.14034748      -5.45124714
Br      -4.32886793      -8.19536805      -6.54668484
C       -1.52997936      -8.37178769      -6.05283039
C       -0.41204327      -8.31538490      -5.31557870
C       -0.48408439      -8.01478493      -3.85965230
O        0.55177098      -7.92816422      -3.20693709
C       -1.86584007      -3.16415509      -1.54218758
H       -2.45836082      -0.14879028      -3.02961042
H       -3.90926226      -1.57820955      -4.44048084
H       -4.05526867      -4.01298950      -4.00008586
H       -1.70048352      -5.86082804      -0.55752540
H       -0.77702771      -5.66799078      -2.08283883
H       -2.88330878      -7.85509567      -1.56443887
H       -1.14053042      -8.07628065      -1.35735851
H       -3.85135330      -7.70141942      -3.64549154
H       -1.47298660      -8.58874451      -7.11445244
H        0.57434741      -8.47609397      -5.73055164
H       -1.30542585      -3.58344915      -0.71381829
C       -1.79251374       1.79251374       1.79251374
C       -1.86814676       3.16140896       1.53890268
C       -2.66001574       3.96881904       2.35338099
C       -3.37309279       3.40151649       3.41043568
C       -3.31261814       2.02627071       3.64918766
O       -4.04736789       1.58674274       4.71539932
C       -4.51434817       0.23389320       4.63116118
C       -5.62768892       0.03831912       5.66625713
N       -6.84580557       0.77855968       5.32411985
C       -7.03324450       2.05473707       5.83821158
C       -8.10717136       2.79087743       5.51713600
Br      -8.37728266       4.50824168       6.18539648
C       -9.09542174       2.24350617       4.61566953
C       -8.93575614       1.02374958       4.08350114
C       -7.73532907       0.20853178       4.41466078
O       -7.58505483      -0.89008805       3.88836354
C       -2.50799989       1.21884959       2.84533326
H       -1.31300585       3.60631542       0.71744025
H       -2.72281221       5.03787788       2.16726255
H       -3.99023459       4.03283158       4.04527785
H       -3.68717707      -0.44280736       4.87446724
H       -4.89133363       0.01121838       3.62530531
H       -5.28905326       0.35310710       6.66068296
H       -5.87733610      -1.02770077       5.72453425
H       -6.26176685       2.43180881       6.50468859
H       -9.97075009       2.83568927       4.36974419
H       -9.64950514       0.58267435       3.40011873
H       -2.41623039       0.15451001       3.03195290
C        1.79251374      -1.79251374       1.79251374
C        1.93360979      -3.14595998       1.48888863
C        2.72522730      -3.95426484       2.30272363
C        3.37278949      -3.40298998       3.40926549
C        3.24715007      -2.04200660       3.69891984
O        3.92118921      -1.61782840       4.81049234
C        4.33569778      -0.24545774       4.79824704
C        5.39886278      -0.04878502       5.88461737
N        6.65851593      -0.72633095       5.56363822
C        6.87746877      -2.01406018       6.03466420
C        7.99217185      -2.69400366       5.72900926
Br       8.30558387      -4.42525680       6.34008015
C        8.99181513      -2.07222231       4.89056000
C        8.80359244      -0.83900357       4.40041085
C        7.55898038      -0.08546201       4.71407923
O        7.38483128       1.02694101       4.22544005
C        2.44238797      -1.23462101       2.89517376
H        1.42954801      -3.57844327       0.62877024
H        2.83867543      -5.01159855       2.07767866
H        3.98981602      -4.03500238       4.04352563
H        3.47281414       0.38794617       5.03396899
H        4.74233385       0.03250251       3.81802597
H        5.03470833      -0.41674831       6.85138667
H        5.60248030       1.02292354       5.99461282
H        6.09651002      -2.44778507       6.65396917
H        9.89944440      -2.61925488       4.65748427
H        9.52497204      -0.34294546       3.76438071
H        2.30018527      -0.18315165       3.11935638
C       -0.00445707       0.01189536      -1.78238275
H       -0.66409135       0.67374010      -2.43557963
H        0.65740317      -0.63156657      -2.45157240
C       -0.90989263      -0.90692880      -0.91072765
C        0.90977584       0.90977584      -0.90977584
C       -0.00465871       1.77757030       0.00794375
H       -0.66225468       2.44313916      -0.64384735
H        0.64322798       2.43503045       0.67728295
C       -1.78241447       0.00034974      -0.00472694
H       -2.45427497      -0.65498947       0.64260836
H       -2.43311707       0.67328779      -0.65473579
C       -0.91132561       0.90220522       0.91563759
C       -0.01476271      -0.02253852       1.78660255
H       -0.67934791      -0.69751639       2.42135241
H        0.63392994       0.61504881       2.47327442
C        0.01484550      -1.77751727      -0.01636693
H        0.67870853      -2.42144646      -0.68295456
H       -0.62264859      -2.45592969       0.64226336
C        1.78714474       0.01002794       0.00389507
H        2.44202412       0.67113390       0.66197326
H        2.45385902      -0.65136977      -0.64189061
C        0.91606151      -0.90478549       0.90901405
