150
Properties=species:S:1:pos:R:3 pbc="F F F"
C        1.78892879       1.78892879      -1.78892879
C        2.48213312       2.86194398      -1.24709972
N        3.27700974       3.68112955      -1.97340210
C        3.38856893       3.39878139      -3.29592150
C        2.76132106       2.32287826      -3.91874978
C        1.91193492       1.52507546      -3.15084787
C        2.95486963       2.16305926      -5.37573622
O        2.98478702       3.20112101      -6.03403252
N        3.07873759       0.90086479      -5.96008425
C        3.21139442      -0.36266727      -5.24478729
C        3.13396432       0.82846922      -7.42744687
C        1.80570376       0.55638353      -8.10894434
C        0.62294569       1.13804752      -7.61144650
C       -0.59834470       0.99468113      -8.27501959
C       -0.66482724       0.27652160      -9.46234095
C        0.49110573      -0.29740739      -9.98522649
C        1.71728330      -0.15505271      -9.32069414
H        2.41565466       3.11008061      -0.19143155
H        4.01356539       4.08878886      -3.85963858
H        1.34276756       0.72043152      -3.60388383
H        3.56379844      -0.21033664      -4.22294127
H        3.94531528      -0.99868683      -5.74900032
H        2.24184997      -0.86778416      -5.23716953
H        3.87367993       0.05882726      -7.66532297
H        3.52638783       1.76857716      -7.83245946
H        0.64220374       1.74409219      -6.70894979
H       -1.49168625       1.46600040      -7.87223284
H       -1.61011302       0.17891158      -9.98970305
H        0.43067779      -0.84050331     -10.92557328
C        2.86221413      -0.74914866      -9.96083739
C        3.82109371      -1.24670402     -10.49695736
Br       5.37152089      -2.05120895     -11.36381801
C       -1.78892879      -1.78892879      -1.78892879
C       -1.61312471      -1.81289990      -3.16515221
N       -2.36120420      -2.56967129      -4.00066589
C       -3.31512654      -3.34373890      -3.42440639
C       -3.53847862      -3.41275250      -2.05171798
C       -2.78102948      -2.58499159      -1.22183718
C       -4.63690414      -4.28058521      -1.57617575
O       -5.65136743      -4.29785635      -2.27071677
N       -4.52294098      -5.01978202      -0.39696362
C       -3.31087299      -5.18001807       0.39737663
C       -5.71023746      -5.75006861       0.07042566
C       -6.55198376      -5.01870256       1.09965469
C       -6.74313376      -3.62667087       0.99736492
C       -7.59644900      -2.93949495       1.86458794
C       -8.29204753      -3.63063513       2.84864737
C       -8.13366343      -5.00925560       2.96399420
C       -7.27764669      -5.70041314       2.09513511
H       -0.85532050      -1.20734503      -3.65450130
H       -3.91784760      -3.92195920      -4.12218603
H       -2.96673011      -2.54654273      -0.15381007
H       -2.41517842      -4.97079297      -0.19043168
H       -3.23277588      -6.21292554       0.75007266
H       -3.36140485      -4.50824177       1.25841128
H       -5.34572769      -6.70689163       0.45478917
H       -6.36053325      -5.98718388      -0.77970733
H       -6.25075715      -3.05729290       0.21280432
H       -7.73249866      -1.86648484       1.75243652
H       -8.97013483      -3.10103994       3.51267316
H       -8.69844949      -5.54253360       3.72523534
C       -7.21217836      -7.12863170       2.26690720
C       -7.15734864      -8.32476474       2.41076633
Br      -7.06869361     -10.25881071       2.64337437
C       -1.78892879       1.78892879       1.78892879
C       -1.45097251       2.02659756       3.11360675
N       -2.18955850       2.79545241       3.94653048
C       -3.30574472       3.35853182       3.41899528
C       -3.70299833       3.20689617       2.09305460
C       -2.94458228       2.37022613       1.27304984
C       -4.96195105       3.85849863       1.67321542
O       -5.87605967       3.84839744       2.49548344
N       -5.09785695       4.43374668       0.40808300
C       -4.02665468       4.62849764      -0.56163788
C       -6.42388413       4.94045758       0.02553870
C       -7.27467281       3.97471973      -0.77836090
C       -7.25516501       2.59787189      -0.48059719
C       -8.10366044       1.69680649      -1.12911091
C       -9.00437624       2.15298178      -2.08332272
C       -9.05580100       3.51081172      -2.38768788
C       -8.20500796       4.41634914      -1.73843238
H       -0.56170959       1.59290691       3.56255033
H       -3.89339356       3.95048154       4.11811773
H       -3.25248558       2.16024735       0.25434998
H       -3.04530697       4.61489086      -0.08379476
H       -4.13766141       5.60359775      -1.04563040
H       -4.08776815       3.84176204      -1.31829485
H       -6.24670674       5.87145181      -0.52032839
H       -6.99188352       5.21274494       0.92279599
H       -6.59560130       2.20852521       0.29111921
H       -8.07344780       0.64154415      -0.86844497
H       -9.67786199       1.45664614      -2.57600652
H       -9.77860294       3.85908197      -3.12193715
C       -8.36157961       5.80363483      -2.09131158
C       -8.49270837       6.96548659      -2.38684791
Br      -8.70473247       8.84410263      -2.86470516
C        1.78892879      -1.78892879       1.78892879
C        1.88486136      -3.15302051       1.55329495
N        2.64569207      -3.98796492       2.29788440
C        3.34877550      -3.42290413       3.31159220
C        3.34368054      -2.06041475       3.59885381
C        2.51268823      -1.23381729       2.84135274
C        4.13859278      -1.59842289       4.75664943
O        4.14302078      -2.33805699       5.73886279
N        4.82633642      -0.38341852       4.72993169
C        5.00319571       0.47293047       3.56324920
C        5.48040973       0.06016499       5.96963567
C        4.66506764       1.01541321       6.82137721
C        3.27218819       0.84240436       6.94265588
C        2.50798381       1.63741312       7.80078533
C        3.12080396       2.61777690       8.57100825
C        4.49823141       2.80169013       8.48238355
C        5.26660578       2.00535208       7.62167102
H        1.33714936      -3.63299002       0.74702744
H        3.93147978      -4.12157742       3.90893563
H        2.41623959      -0.17838675       3.07245657
H        4.86172319      -0.08120555       2.63347433
H        6.02098441       0.87455238       3.54919674
H        4.29041316       1.29988691       3.62070908
H        6.43355590       0.50335532       5.66762957
H        5.72770446      -0.80796000       6.59175999
H        2.76251934       0.05707175       6.38979814
H        1.43637647       1.47134578       7.88151630
H        2.53113492       3.22520364       9.25257033
H        4.96973695       3.55876675       9.10477756
C        6.68675713       2.24344974       7.63059547
C        7.87613389       2.44285654       7.63806970
Br       9.79925551       2.76528046       7.65015490
C       -0.00445707       0.01189536      -1.78238275
H       -0.66409135       0.67374010      -2.43557963
H        0.65740317      -0.63156657      -2.45157240
C       -0.90989263      -0.90692880      -0.91072765
C        0.90977584       0.90977584      -0.90977584
C       -0.00465871       1.77757030       0.00794375
H       -0.66225468       2.44313916      -0.64384735
H        0.64322798       2.43503045       0.67728295
C       -1.78241447       0.00034974      -0.00472694
H       -2.45427497      -0.65498947       0.64260836
H       -2.43311707       0.67328779      -0.65473579
C       -0.91132561       0.90220522       0.91563759
C       -0.01476271      -0.02253852       1.78660255
H       -0.67934791      -0.69751639       2.42135241
H        0.63392994       0.61504881       2.47327442
C        0.01484550      -1.77751727      -0.01636693
H        0.67870853      -2.42144646      -0.68295456
H       -0.62264859      -2.45592969       0.64226336
C        1.78714474       0.01002794       0.00389507
H        2.44202412       0.67113390       0.66197326
H        2.45385902      -0.65136977      -0.64189061
C        0.91606151      -0.90478549       0.90901405
