137
Properties=species:S:1:pos:R:3 pbc="F F F"
C        0.00000000       0.00000000       0.00000000
O        0.60239006       4.53761515      -5.08930676
C        1.58829803       3.68952193      -5.68298419
C        2.97908887       4.27416617      -5.41505625
H        3.72704653       3.68527202      -5.95603561
O        3.01222596       5.60527677      -5.95843541
C        3.34292680       4.35633591      -3.92760157
N        3.45403069       3.06119301      -3.27685858
C        2.47451648       2.48575248      -2.48863138
C        1.19883993       2.94285059      -2.11428071
C        0.40999178       2.11948519      -1.30608543
C        0.88292560       0.88292560      -0.88292560
C        2.15217448       0.43172950      -1.25051688
C        2.96433254       1.24758419      -2.06867405
C        4.27895282       1.09558659      -2.60900398
C        5.25185794       0.07653425      -2.51998435
C        6.47406347       0.24066492      -3.17587574
C        6.74382362       1.38697917      -3.91446457
C        5.79370230       2.40737136      -4.01800246
C        4.56508429       2.24032093      -3.35510518
H       -0.26038202       4.11519735      -5.25607770
H        1.39138234       3.67332076      -6.75977822
H        1.48281576       2.67562315      -5.28811797
H        2.15135126       6.00543997      -5.71757015
H        2.62724887       4.97462042      -3.37482129
H        4.30565681       4.86916320      -3.80529134
H        0.82002473       3.90751850      -2.43834385
H       -0.57905524       2.46115669      -1.01080478
H        2.51852608      -0.53283243      -0.91412953
H        5.04823336      -0.81943103      -1.94167649
H        7.70086363       1.50357364      -4.41775836
H        6.01522153       3.30095270      -4.59425613
C        7.46948085      -0.79563037      -3.08187411
C        8.30314291      -1.66352767      -3.00314774
Br       9.65110394      -3.06684421      -2.87585387
O       -0.60221959      -5.08808767      -4.53900471
C       -1.38330411      -4.21700348      -5.36049656
C       -2.86332787      -4.58721031      -5.21777311
H       -3.45246469      -3.99240824      -5.92348123
O       -3.01336427      -5.96657591      -5.59599796
C       -3.41172811      -4.41962288      -3.79551330
N       -3.42139385      -3.04346153      -3.32722689
C       -2.47435875      -2.48750344      -2.48703815
C       -1.32818737      -3.03928794      -1.88849592
C       -0.53692741      -2.21384493      -1.08479006
C       -0.88292560      -0.88292560      -0.88292560
C       -2.02440435      -0.33678956      -1.47322695
C       -2.83634705      -1.15340664      -2.29083709
C       -4.04273044      -0.91969809      -3.02111486
C       -4.86986894       0.21174784      -3.19025544
C       -6.01491823       0.10762670      -3.98331260
C       -6.34863768      -1.08835662      -4.60827306
C       -5.54233187      -2.22036776      -4.45637649
C       -4.39142183      -2.11318637      -3.65590219
H        0.32418792      -4.79978019      -4.63530076
H       -1.05760985      -4.37285853      -6.39401293
H       -1.18783937      -3.17864228      -5.08007523
H       -2.25107208      -6.43070737      -5.19258192
H       -2.85979038      -5.03780403      -3.07909617
H       -4.44347440      -4.79087138      -3.74576557
H       -1.04929405      -4.07792610      -2.03866694
H        0.35285356      -2.62844928      -0.61731051
H       -2.29254528       0.70193545      -1.30921336
H       -4.61625502       1.14754634      -2.70177014
H       -7.24486335      -1.15674651      -5.22058578
H       -5.81345866      -3.15138184      -4.94558985
C       -6.86241971       1.25942489      -4.15272978
C       -7.57220219       2.22405588      -4.29461666
Br      -8.71986043       3.78378259      -4.52403576
O       -6.12939212       2.71319036       1.38672949
C       -5.50694316       3.99831737       1.45554362
C       -5.34434032       4.39820974       2.92576123
H       -4.96487295       5.42388099       2.97960022
O       -6.64824644       4.39527191       3.53241979
C       -4.44118873       3.45544720       3.73022835
N       -3.05647367       3.44777253       3.28783608
C       -2.49103982       2.48152783       2.47633270
C       -3.03719826       1.32395110       1.89482187
C       -2.21126574       0.53169878       1.09259788
C       -0.88292560       0.88292560       0.88292560
C       -0.33946161       2.02982123       1.46513801
C       -1.15782767       2.84530952       2.27745359
C       -0.92395202       4.05135417       3.00823720
C        0.21216414       4.86902500       3.19151569
C        0.11149483       6.00707662       3.99502234
C       -1.08720558       6.34630425       4.61175753
C       -2.22520457       5.55213723       4.44173433
C       -2.12042244       4.40609106       3.63399690
H       -6.18547181       2.48493724       0.44048398
H       -6.17185535       4.70460252       0.94802345
H       -4.55064988       3.96922376       0.92668323
H       -7.09275874       3.59320702       3.18839561
H       -4.82565064       2.42970521       3.72133473
H       -4.44625147       3.74484821       4.78901167
H       -4.07322296       1.03975967       2.05290446
H       -2.62223002      -0.36546148       0.63613768
H        0.69945509       2.29757354       1.30170475
H        1.15200174       4.60722287       2.71525769
H       -1.15116275       7.23354376       5.23748912
H       -3.15626243       5.82335276       4.93081517
C        1.27077833       6.83940360       4.18709933
C        2.24167826       7.53647744       4.34796380
Br       3.81154134       8.66358688       4.60806806
O        6.01792006      -3.04659861       1.16479330
C        5.31750604      -4.27634742       1.36695068
C        5.23429366      -4.56440540       2.86961223
H        4.79195971      -5.55435621       3.02203824
O        6.57558675      -4.61435531       3.38599609
C        4.45613267      -3.50770644       3.66302518
N        3.04689768      -3.43042691       3.31475769
C        2.49062184      -2.48255653       2.47572197
C        3.06985529      -1.40854400       1.77757194
C        2.24337040      -0.61454509       0.97764692
C        0.88292560      -0.88292560       0.88292560
C        0.30713777      -1.94645458       1.58082851
C        1.12526267      -2.76236110       2.39296702
C        0.86426489      -3.89700551       3.22227300
C       -0.30790199      -4.61709524       3.53918330
C       -0.22620995      -5.70318205       4.41363203
C        0.98823728      -6.08544011       4.97158998
C        2.16165674      -5.38799009       4.66942930
C        2.07610287      -4.29393529       3.79047224
H        6.02119075      -2.88670297       0.20299931
H        5.89565359      -5.06079186       0.86803587
H        4.32986795      -4.21422553       0.90246340
H        7.04691769      -3.87098939       2.95645429
H        4.90666200      -2.51503918       3.55498940
H        4.51768630      -3.72531498       4.73711007
H        4.13121471      -1.18938119       1.84529118
H        2.67961481       0.21834766       0.43163907
H       -0.75638440      -2.14940777       1.50679982
H       -1.25984201      -4.32104785       3.10927298
H        1.03741981      -6.93117275       5.65360308
H        3.10514883      -5.69191956       5.11336197
C       -1.42178184      -6.43560953       4.74189690
C       -2.42307330      -7.04901755       5.01681873
Br      -4.04207691      -8.04084643       5.46134408
