150
Properties=species:S:1:pos:R:3 pbc="F F F"
O        1.51229408       5.44751917      -5.99921079
C        2.49820206       4.59942595      -6.59288821
C        3.88899290       5.18407019      -6.32496028
H        4.63695055       4.59517605      -6.86593963
O        3.92212998       6.51518080      -6.86833944
C        4.25283083       5.26623993      -4.83750559
N        4.36393471       3.97109704      -4.18676260
C        3.38442050       3.39565651      -3.39853541
C        2.10874395       3.85275462      -3.02418474
C        1.31989580       3.02938922      -2.21598945
C        1.79282963       1.79282963      -1.79282963
C        3.06207851       1.34163352      -2.16042090
C        3.87423656       2.15748822      -2.97857807
C        5.18885684       2.00549061      -3.51890801
C        6.16176197       0.98643828      -3.42988837
C        7.38396749       1.15056895      -4.08577977
Br       8.69191210      -0.21108785      -3.96226482
C        7.65372765       2.29688319      -4.82436860
C        6.70360632       3.31727538      -4.92790649
C        5.47498831       3.15022495      -4.26500920
H        0.64952201       5.02510137      -6.16598172
H        2.30128637       4.58322478      -7.66968224
H        2.39271979       3.58552717      -6.19802199
H        3.06125529       6.91534399      -6.62747417
H        3.53715290       5.88452444      -4.28472531
H        5.21556083       5.77906723      -4.71519536
H        1.72992875       4.81742253      -3.34824788
H        0.33084878       3.37106072      -1.92070880
H        3.42843011       0.37707160      -1.82403356
H        5.95813738       0.09047299      -2.85158051
H        8.61076766       2.41347767      -5.32766238
H        6.92512555       4.21085673      -5.50416016
O       -1.84425258      -6.73693833      -4.37783313
C       -2.21283356      -5.95869989      -5.51898278
C       -3.73700777      -5.98719633      -5.67381926
H       -4.01348661      -5.48038533      -6.60419429
O       -4.14369213      -7.36072780      -5.80123029
C       -4.49375257      -5.37291772      -4.48990607
N       -4.25707253      -3.94927757      -4.31544425
C       -3.38501332      -3.39985285      -3.39374625
C       -2.54806531      -4.00051002      -2.43710797
C       -1.75085679      -3.17373506      -1.64068261
C       -1.79282963      -1.79282963      -1.79282963
C       -2.62830852      -1.19643272      -2.73939169
C       -3.44029255      -2.01420314      -3.55580716
C       -4.38668052      -1.73619248      -4.59038247
C       -4.86225400      -0.54192847      -5.17390616
C       -5.82090229      -0.61210379      -6.18731013
Br      -6.46458234       0.98763866      -6.96614539
C       -6.30909428      -1.83612435      -6.62976081
C       -5.85008849      -3.03109221      -6.06760750
C       -4.88656836      -2.95733486      -5.04631925
H       -0.87499734      -6.66706654      -4.29854122
H       -1.74043059      -6.42326512      -6.39049768
H       -1.82747485      -4.94185062      -5.40694348
H       -3.61189066      -7.85117799      -5.14100480
H       -4.26041610      -5.89206838      -3.55391816
H       -5.57430794      -5.51245655      -4.62305893
H       -2.50831008      -5.07808264      -2.30920643
H       -1.09831104      -3.62627759      -0.89802967
H       -2.66052515      -0.11748095      -2.85152916
H       -4.48729563       0.41714280      -4.83003806
H       -7.05785244      -1.87654321      -7.41751205
H       -6.24036694      -3.98238773      -6.41738776
O       -6.80928654       4.23180646       1.91793104
C       -6.05545896       5.40596728       2.22908998
C       -6.04383016       5.60597328       3.74821993
H       -5.55751349       6.55878290       3.98176985
O       -7.40804564       5.70522235       4.19238222
C       -5.37201843       4.46407538       4.52048254
N       -3.95131886       4.32443677       4.24603872
C       -3.40010403       3.39330241       3.38520597
C       -3.99585746       2.39452694       2.59529890
C       -3.16913255       1.59896969       1.79717224
C       -1.79282963       1.79282963       1.79282963
C       -1.20107077       2.78136819       2.58169397
C       -2.01897020       3.59760969       3.39372296
C       -1.74471967       4.66808521       4.30045059
C       -0.55521074       5.30058065       4.72229722
C       -0.62783492       6.34004349       5.65243779
Br       0.96581806       7.18468097       6.22422616
C       -1.84981545       6.76091270       6.16425128
C       -3.04018775       6.15024952       5.75835092
C       -2.96388920       5.10286719       4.82346608
H       -6.76555777       4.12529388       0.94975344
H       -6.55987734       6.24875288       1.74556317
H       -5.04744680       5.31224085       1.81658130
H       -7.89369753       5.01507253       3.69530339
H       -5.86922612       3.50660144       4.33057510
H       -5.48371232       4.62572344       5.60038766
H       -5.06976654       2.23387141       2.59196121
H       -3.61796305       0.82392416       1.18073109
H       -0.12552804       2.92608599       2.57792124
H        0.40239915       4.97384893       4.32874111
H       -1.89204557       7.56944366       6.89041848
H       -3.98975764       6.48358046       6.16680434
O        7.06941915      -3.50721627       2.38238863
C        6.47763486      -4.80838190       2.40449945
C        6.28940098      -5.24853969       3.86008269
H        5.93436280      -6.28413804       3.87956540
O        7.57772666      -5.22905171       4.49887184
C        5.34383023      -4.34826619       4.66447993
N        3.97049469      -4.36319382       4.18810584
C        3.40106415      -3.39107186       3.38647640
C        3.93221612      -2.20648087       2.84698632
C        3.10654588      -1.41479780       2.04393079
C        1.79282963      -1.79282963       1.79282963
C        1.26408785      -2.96669803       2.33334705
C        2.08252915      -3.78203760       3.14573611
C        1.86105475      -5.01120204       3.84099867
C        0.74151128      -5.86050400       3.97607334
C        0.85092443      -7.01540747       4.75398431
Br      -0.65034196      -8.15163354       4.94179750
C        2.04237240      -7.34068169       5.39192535
C        3.16406041      -6.51515330       5.26957449
C        3.05044078      -5.35225469       4.48752699
H        7.14274873      -3.25420895       1.44364741
H        7.17202414      -5.48548597       1.89668328
H        5.53402788      -4.78935790       1.85288318
H        8.01037229      -4.40813012       4.18557104
H        5.70276762      -3.31359366       4.69004137
H        5.33039615      -4.66369949       5.71572778
H        4.95671225      -1.90125385       3.03763306
H        3.50602710      -0.49685620       1.61973500
H        0.23642247      -3.25543297       2.13767982
H       -0.19271332      -5.60982080       3.48308341
H        2.11317194      -8.24139435       5.99734142
H        4.08943353      -6.77577613       5.77493278
C       -0.00445707       0.01189536      -1.78238275
H       -0.66409135       0.67374010      -2.43557963
H        0.65740317      -0.63156657      -2.45157240
C       -0.90989263      -0.90692880      -0.91072765
C        0.90977584       0.90977584      -0.90977584
C       -0.00465871       1.77757030       0.00794375
H       -0.66225468       2.44313916      -0.64384735
H        0.64322798       2.43503045       0.67728295
C       -1.78241447       0.00034974      -0.00472694
H       -2.45427497      -0.65498947       0.64260836
H       -2.43311707       0.67328779      -0.65473579
C       -0.91132561       0.90220522       0.91563759
C       -0.01476271      -0.02253852       1.78660255
H       -0.67934791      -0.69751639       2.42135241
H        0.63392994       0.61504881       2.47327442
C        0.01484550      -1.77751727      -0.01636693
H        0.67870853      -2.42144646      -0.68295456
H       -0.62264859      -2.45592969       0.64226336
C        1.78714474       0.01002794       0.00389507
H        2.44202412       0.67113390       0.66197326
H        2.45385902      -0.65136977      -0.64189061
C        0.91606151      -0.90478549       0.90901405
