129
Properties=species:S:1:pos:R:3 pbc="F F F"
C        0.00000000       0.00000000       0.00000000
O        0.60239006       4.53761515      -5.08930676
C        1.58829803       3.68952193      -5.68298419
C        2.97908887       4.27416617      -5.41505625
H        3.72704653       3.68527202      -5.95603561
O        3.01222596       5.60527677      -5.95843541
C        3.34292680       4.35633591      -3.92760157
N        3.45403069       3.06119301      -3.27685858
C        2.47451648       2.48575248      -2.48863138
C        1.19883993       2.94285059      -2.11428071
C        0.40999178       2.11948519      -1.30608543
C        0.88292560       0.88292560      -0.88292560
C        2.15217448       0.43172950      -1.25051688
C        2.96433254       1.24758419      -2.06867405
C        4.27895282       1.09558659      -2.60900398
C        5.25185794       0.07653425      -2.51998435
C        6.47406347       0.24066492      -3.17587574
Br       7.78200808      -1.12099187      -3.05236079
C        6.74382362       1.38697917      -3.91446457
C        5.79370230       2.40737136      -4.01800246
C        4.56508429       2.24032093      -3.35510518
H       -0.26038202       4.11519735      -5.25607770
H        1.39138234       3.67332076      -6.75977822
H        1.48281576       2.67562315      -5.28811797
H        2.15135126       6.00543997      -5.71757015
H        2.62724887       4.97462042      -3.37482129
H        4.30565681       4.86916320      -3.80529134
H        0.82002473       3.90751850      -2.43834385
H       -0.57905524       2.46115669      -1.01080478
H        2.51852608      -0.53283243      -0.91412953
H        5.04823336      -0.81943103      -1.94167649
H        7.70086363       1.50357364      -4.41775836
H        6.01522153       3.30095270      -4.59425613
O       -0.59135220      -4.64717087      -4.99078890
C       -1.54105011      -3.79040613      -5.62934791
C       -2.95210435      -4.33415576      -5.38205118
H       -3.67174625      -3.74090997      -5.95569794
O       -3.00520516      -5.67720797      -5.89352502
C       -3.35397889      -4.37030751      -3.90257788
N       -3.44854223      -3.05701135      -3.28652869
C       -2.47445323      -2.48609782      -2.48834930
C       -1.22006879      -2.96463072      -2.07127172
C       -0.43083039      -2.14080359      -1.26392841
C       -0.88292560      -0.88292560      -0.88292560
C       -2.13119807      -0.41027893      -1.29294385
C       -2.94330233      -1.22628106      -2.11100740
C       -4.24017872      -1.05585642      -2.68750825
C       -5.18923451      -0.01151990      -2.64762214
C       -6.39882661      -0.16216420      -3.32961332
Br      -7.67501009       1.23358475      -3.27195166
C       -6.67904429      -1.31964289      -4.04658018
C       -5.75243849      -2.36512607      -4.10151156
C       -4.53653548      -2.21154509      -3.41242983
H        0.28549430      -4.25017223      -5.14621509
H       -1.31763856      -3.80587379      -6.70096897
H       -1.41994732      -2.76983935      -5.25677021
H       -2.16070069      -6.09207387      -5.62158681
H       -2.66761764      -4.99184563      -3.31722731
H       -4.33189600      -4.85633681      -3.79187854
H       -0.85766361      -3.94601879      -2.36220469
H        0.54190328      -2.49897567      -0.93583384
H       -2.48144987       0.57100731      -0.98938064
H       -4.97745678       0.89337288      -2.08639492
H       -7.62616054      -1.42542728      -4.57060782
H       -5.98209051      -3.26714952      -4.66119033
O       -6.23351035       1.91422963       2.08157199
C       -5.86535545       3.27138818       1.82406051
C       -5.54960129       3.96568654       3.15302346
H       -5.36956425       5.02991075       2.96887916
O       -6.71500513       3.87064313       3.99028988
C       -4.36625786       3.35060181       3.91000461
N       -3.09433784       3.47966947       3.21807497
C       -2.49156947       2.47901614       2.47831473
C       -2.89207207       1.15956080       2.20433836
C       -2.06879283       0.37077930       1.39599027
C       -0.88292560       0.88292560       0.88292560
C       -0.48287874       2.19174037       1.15980174
C       -1.30166064       3.00616273       1.97276741
C       -1.18903420       4.35123811       2.44327108
C       -0.21576519       5.35955838       2.27305298
C       -0.40253390       6.59927529       2.88879493
Br       0.90395473       7.94989458       2.66743715
C       -1.52984711       6.85433741       3.66108284
C       -2.50731642       5.87101361       3.84074610
C       -2.31571169       4.62340192       3.22139679
H       -6.39525710       1.50333109       1.21230484
H       -6.72535429       3.75224659       1.34688043
H       -5.01806705       3.29478539       1.13370444
H       -7.04710998       2.95712271       3.87012868
H       -4.54394304       2.29410351       4.13864403
H       -4.25744937       3.83247285       4.89018914
H       -3.81588597       0.74914347       2.60085764
H       -2.36817863      -0.65097732       1.17570491
H        0.44602432       2.58567546       0.76017205
H        0.66846872       5.16500846       1.67393908
H       -1.66149674       7.82302316       4.13767574
H       -3.38279958       6.07853320       4.44909758
O        6.11378045      -2.76725752       1.34827400
C        5.47766802      -4.04432171       1.43881442
C        5.32737853      -4.42567901       2.91525375
H        4.93697868      -5.44626913       2.98510634
O        6.63808720      -4.43079397       3.50705697
C        4.44420374      -3.46361352       3.71904702
N        3.05469519      -3.44510590       3.29228119
C        2.49097917      -2.48169535       2.47622582
C        3.04350536      -1.33708954       1.87537633
C        2.21746316      -0.54456478       1.07353446
C        0.88292560      -0.88292560       0.88292560
C        0.33322231      -2.01687459       1.48432396
C        1.15155171      -2.83243166       2.29660741
C        0.91242704      -4.02738267       3.04373368
C       -0.23069157      -4.82988241       3.24918571
C       -0.13371407      -5.95985288       4.06446532
Br      -1.66625576      -7.03308659       4.34654617
C        1.06804886      -6.30577195       4.67144655
C        2.21293589      -5.52664463       4.47949561
C        2.11188811      -4.38868145       3.65994084
H        6.16161217      -2.55037447       0.39890639
H        6.12870407      -4.76385821       0.93191903
H        4.51577915      -4.01027520       0.92050252
H        7.08767659      -3.63780630       3.14887849
H        4.84011230      -2.44250159       3.69407670
H        4.45810217      -3.74106333       4.78094585
H        4.08441732      -1.06299575       2.01847402
H        2.63329826       0.34261832       0.60222628
H       -0.71045659      -2.27455880       1.33572098
H       -1.17289407      -4.56275088       2.78062200
H        1.12912181      -7.18655299       5.30652083
H        3.14639999      -5.80294294       4.96108743
