125
Properties=species:S:1:pos:R:3 pbc="F F F"
C        0.00000000       0.00000000       0.00000000
O        5.56601925       2.84497227      -2.41179643
C        4.81830458       3.40668753      -3.21100624
N        3.43925914       3.29185033      -3.24614263
C        2.62928482       2.46727866      -2.43273469
C        3.12880052       1.61515114      -1.44974914
C        2.26622191       0.82990724      -0.67808835
C        0.88668326       0.88668326      -0.88668326
C        0.35614443       1.72888062      -1.87191696
C       -1.12296091       1.81953301      -2.12908788
C        1.24117457       2.51630315      -2.63660716
C        5.40377571       4.42418056      -4.19523689
N        4.64678863       4.64505933      -5.43157134
C        4.65151833       3.65625903      -6.40818648
C        4.07194213       3.84695299      -7.60410378
Br       4.05703938       2.53736065      -8.92756278
C        3.45415188       5.11990247      -7.89409869
C        3.42778196       6.09459618      -6.97413051
C        4.03520054       5.88042875      -5.63329362
O        3.96630986       6.76982418      -4.79197332
H        2.96299384       3.87736992      -3.92296406
H        4.19137067       1.53190789      -1.24466569
H        2.68669079       0.17978273       0.08399840
H       -1.34653326       2.50705921      -2.95155590
H       -1.64313861       2.19112637      -1.24052484
H       -1.52419068       0.83955907      -2.40792408
H        0.83160030       3.17565013      -3.39861385
H        6.40666084       4.08366269      -4.48077585
H        5.52181282       5.36568012      -3.64733937
H        5.15019533       2.72208915      -6.16116358
H        3.02216468       5.28564707      -8.87616540
H        2.98645337       7.06543323      -7.16035855
O       -5.56282305      -2.86724170      -2.39272321
C       -4.81685169      -3.41803662      -3.20111005
N       -3.43892881      -3.29321282      -3.24511047
C       -2.62903266      -2.46866597      -2.43159954
C       -3.12755655      -1.62700881      -1.43913544
C       -2.26507777      -0.84112306      -0.66801666
C       -0.88668326      -0.88668326      -0.88668326
C       -0.35722335      -1.71817574      -1.88154292
C        1.12062736      -1.79656611      -2.14972122
C       -1.24208800      -2.50644758      -2.64554930
C       -5.40210918      -4.43270995      -4.18837402
N       -4.65234683      -4.63955227      -5.43152020
C       -4.67091686      -3.64398113      -6.40106585
C       -4.09848279      -3.82217751      -7.60233860
Br      -4.10212362      -2.50325754      -8.91658165
C       -3.47383976      -5.08866292      -7.90565036
C       -3.43412989      -6.06957773      -6.99280102
C       -4.03354555      -5.86912276      -5.64625461
O       -3.95247141      -6.76389112      -4.81174483
H       -2.96336140      -3.87058806      -3.92937835
H       -4.18920883      -1.55271803      -1.22601739
H       -2.68470232      -0.19935013       0.10157732
H        1.34320088      -2.47670663      -2.97857611
H        1.64966636      -2.17070036      -1.26747860
H        1.51298981      -0.81184857      -2.42443371
H       -0.83329224      -3.15752008      -3.41505195
H       -6.40935203      -4.09729263      -4.46445472
H       -5.50966155      -5.37884182      -3.64632894
H       -5.17437887      -2.71511519      -6.14395400
H       -3.04765115      -5.24445488      -8.89187112
H       -2.98732650      -7.03594092      -7.18897772
O       -2.96213547       5.54618890       2.31446358
C       -3.49554154       4.80326568       3.13719114
N       -3.27669783       3.44182376       3.25873050
C       -2.46579266       2.62953633       2.43396918
C       -1.75336998       3.10540642       1.33492441
C       -0.96602564       2.24318332       0.56500855
C       -0.88668326       0.88668326       0.88668326
C       -1.59679396       0.37850063       1.98164741
C       -1.53925650      -1.07552297       2.36192644
C       -2.38146536       1.26399642       2.74862310
C       -4.39579592       5.40857993       4.21881730
N       -5.40569439       4.51804805       4.79967687
C       -6.51246636       4.16809361       4.03540388
C       -7.52317391       3.44972677       4.55009822
Br      -9.01384703       2.96086769       3.54724809
C       -7.47356075       3.05578564       5.93880666
C       -6.41959351       3.37277483       6.70414029
C       -5.27812111       4.13714356       6.13365824
O       -4.30576165       4.38336247       6.83898323
H       -3.74136142       2.98601383       4.03595256
H       -1.77801142       4.14971664       1.04021619
H       -0.41852023       2.64628350      -0.28232860
H       -2.17778908      -1.29080295       3.22509572
H       -0.51706859      -1.35979751       2.63124152
H       -1.89011302      -1.70200122       1.53518067
H       -2.92953012       0.87325711       3.60307704
H       -4.92504393       6.26425364       3.78180181
H       -3.73536815       5.79774976       5.00171441
H       -6.52473176       4.50658258       3.00213372
H       -8.31069529       2.51016295       6.36311892
H       -6.35385514       3.10689086       7.75149915
O        2.51500020      -5.57802605       2.72976171
C        3.26450615      -4.82347818       3.34801402
N        3.25176406      -3.44071777       3.28477027
C        2.43889127      -2.63031776       2.46008914
C        1.50705510      -3.13273384       1.55391187
C        0.73245941      -2.26976777       0.77199032
C        0.88668326      -0.88668326       0.88668326
C        1.81995546      -0.35283046       1.78415608
C        2.01770308       1.13017179       1.93812868
C        2.58835759      -1.23855270       2.56717458
C        4.23249110      -5.41075078       4.37995128
N        5.43055734      -4.61820648       4.67465549
C        6.44194118      -4.55015487       3.72386780
C        7.60743264      -3.93510841       3.98045785
Br       8.97610084      -3.82275098       2.72311100
C        7.82747742      -3.35563053       5.28504510
C        6.87235936      -3.39948125       6.22466803
C        5.56405005      -4.04671271       5.93816015
O        4.68896803      -4.04202661       6.79711272
H        3.88842081      -2.96259173       3.91231528
H        1.34534691      -4.19815912       1.42443822
H        0.01089786      -2.69283606       0.07874121
H        2.80562885       1.35739740       2.66385041
H        1.09724089       1.60333507       2.29460677
H        2.31663617       1.57793754       0.98459384
H        3.30991490      -0.82671477       3.26923461
H        4.56783011      -6.38904329       4.01422598
H        3.65558488      -5.58403858       5.29520886
H        6.24800740      -5.02189666       2.76354400
H        8.78588383      -2.89480049       5.50329283
H        7.00641190      -2.98860100       7.21723225
