162
Properties=species:S:1:pos:R:3 pbc="F F F"
C        1.78880020       1.78880020      -1.78880020
C        2.91273361       2.41288980      -1.26846770
N        3.73545749       3.20188182      -1.99975808
C        3.41301808       3.37300677      -3.30683948
C        2.30807645       2.78680150      -3.91472122
C        1.47868902       1.97630524      -3.13274218
C        2.08168839       3.03847839      -5.35443161
O        2.78068865       3.77316570      -6.02978633
O        1.03620943       2.30005264      -5.80003865
C        0.73807519       2.41523772      -7.20656900
C        1.72032861       1.61084116      -8.07275399
N        1.63980137       0.15589276      -7.85818398
C        2.27966469      -0.35646737      -6.65152524
C        0.61932539      -0.51898324      -8.54230160
O       -0.16299083       0.06687110      -9.29017097
C        0.41873619      -1.97628084      -8.37765046
C       -0.88699574      -2.46093754      -8.36485906
N       -1.21056052      -3.77494745      -8.25105074
C       -0.17854581      -4.64613159      -8.17074515
C        1.15269342      -4.25907650      -8.21056669
Br       2.53088288      -5.54092346      -8.09432300
C        1.45771710      -2.90593653      -8.33918796
H        3.19693023       2.29799477      -0.22585566
H        4.09593019       4.01198646      -3.86333783
H        0.60222313       1.49776401      -3.56041137
H        0.74123119       3.47242737      -7.49830941
H       -0.28509096       2.04916627      -7.34075106
H        2.75705197       1.91493171      -7.89538068
H        1.50302345       1.81893811      -9.12715893
H        2.86266310      -1.24857522      -6.87366988
H        1.51394673      -0.59331444      -5.90802294
H        2.97549419       0.38302955      -6.24484097
H       -1.73813120      -1.78907639      -8.45601764
H       -0.46692545      -5.68999908      -8.08198558
H        2.49028277      -2.59085605      -8.44097732
C       -1.78880020      -1.78880020      -1.78880020
C       -2.02903956      -3.11265083      -1.45240072
N       -2.80459779      -3.94237131      -2.19012829
C       -3.35852546      -3.42056024      -3.31377862
C       -3.17477135      -2.10601365      -3.72881417
C       -2.36937340      -1.27397091      -2.94439212
C       -3.85326107      -1.65733256      -4.96400476
O       -4.52529460      -2.38896422      -5.66938187
O       -3.65778025      -0.32907654      -5.14944392
C       -4.31068168       0.24911159      -6.29831183
C       -5.81299502       0.46824086      -6.05916959
N       -6.10395834       1.45807537      -5.00799513
C       -5.94793709       1.00380078      -3.63058624
C       -6.05699366       2.80558067      -5.39123076
O       -5.79675362       3.14723327      -6.54453089
C       -6.29728705       3.89031070      -4.41312946
C       -5.54408541       5.05617882      -4.52901918
N       -5.68384327       6.13689620      -3.71859570
C       -6.63853467       6.05583560      -2.76336868
C       -7.45915748       4.95040748      -2.59543362
Br      -8.76772689       4.92136095      -1.23791648
C       -7.30297699       3.85929820      -3.44728974
H       -1.59874368      -3.56111479      -0.56092218
H       -3.97532809      -4.11502264      -3.88090375
H       -2.19331020      -0.23996815      -3.22712016
H       -4.14757664      -0.38959936      -7.17479197
H       -3.80799905       1.20112780      -6.49795511
H       -6.31812008      -0.46377954      -5.78546474
H       -6.26625003       0.81322945      -6.99609991
H       -6.79108313       1.32455882      -3.02123345
H       -5.02052170       1.40985633      -3.21798986
H       -5.92524923      -0.08899047      -3.58912502
H       -4.78814654       5.16368622      -5.30434973
H       -6.72886709       6.93493022      -2.13112420
H       -7.97981719       3.01514455      -3.37573139
C       -1.78880020       1.78880020       1.78880020
C       -2.77045284       2.59356352       1.23007474
N       -3.58589418       3.39267806       1.95852516
C       -3.40465011       3.38477240       3.30344181
C       -2.44812817       2.61038509       3.95108591
C       -1.62236822       1.79462242       3.17074580
C       -2.36892229       2.67935161       5.42632449
O       -3.06133150       3.41609040       6.10621878
O       -1.46796978       1.77894827       5.88938267
C       -1.32846103       1.70816038       7.32326051
C       -2.48632407       0.93884975       7.97874993
N       -2.53557365      -0.48436380       7.60266825
C       -3.07829242      -0.78629139       6.28272152
C       -1.68089332      -1.34434174       8.30609217
O       -0.93526334      -0.93814037       9.19692826
C       -1.61778909      -2.78942426       7.99174099
C       -0.37856383      -3.42160864       8.05997058
N       -0.18490083      -4.74522426       7.82586619
C       -1.28656891      -5.47422885       7.53372768
C       -2.56453246      -4.93823771       7.47788886
Br      -4.04722546      -6.02774864       7.06480560
C       -2.73750193      -3.57976309       7.73322970
H       -2.93938846       2.62440551       0.15698668
H       -4.07720687       4.03771275       3.85633486
H       -0.85859441       1.17276257       3.62904154
H       -1.25415558       2.72131838       7.73649401
H       -0.37308185       1.21102565       7.52071886
H       -3.45652863       1.38098240       7.72985333
H       -2.37494758       1.00671491       9.06745800
H       -3.77480557      -1.62133747       6.33428965
H       -2.25914987      -1.03223722       5.60174259
H       -3.63856273       0.06952046       5.89528153
H        0.52211340      -2.86905537       8.31997883
H       -1.10198071      -6.52962355       7.35270390
H       -3.73558910      -3.15686699       7.76168193
C        1.78880020      -1.78880020       1.78880020
C        2.04881307      -3.10560161       1.43967643
N        2.82546610      -3.93486201       2.17676928
C        3.35979614      -3.42001634       3.31305183
C        3.15544251      -2.11279055       3.74136611
C        2.34947803      -1.28100242       2.95725599
C        3.81387341      -1.67092640       4.98979859
O        4.48622563      -2.40294838       5.69446667
O        3.60034406      -0.34738593       5.18857071
C        4.23266164       0.22469690       6.35191717
C        5.73496817       0.46440900       6.13336458
N        6.02647535       1.47011317       5.09751592
C        5.89218666       1.03053148       3.71306738
C        5.95887346       2.81228985       5.49606014
O        5.68095500       3.13702635       6.65012258
C        6.19771945       3.91140344       4.53378980
C        5.42931205       5.06681971       4.65443345
N        5.56570314       6.15872786       3.85856749
C        6.53251759       6.10038458       2.91393474
C        7.36822889       5.00681894       2.74277367
Br       8.69300344       5.00947542       1.40075440
C        7.21505213       3.90383080       3.57974720
H        1.63447645      -3.54842605       0.53787815
H        3.97811458      -4.11387367       3.87926623
H        2.15773282      -0.25260764       3.25005805
H        4.06686005      -0.42633317       7.21877475
H        3.71630554       1.16825044       6.55677127
H        6.25440248      -0.45823699       5.85472489
H        6.17296101       0.80350046       7.07965994
H        6.73857871       1.36849552       3.11767456
H        4.96492226       1.43050398       3.29423695
H        5.88306073      -0.06187759       3.65842640
H        4.66303172       5.15610624       5.42188458
H        6.61979578       6.98798352       2.29324879
H        7.90273758       3.06865093       3.50631738
C       -0.00445707       0.01189536      -1.78238275
H       -0.66409135       0.67374010      -2.43557963
H        0.65740317      -0.63156657      -2.45157240
C       -0.90989263      -0.90692880      -0.91072765
C        0.90977584       0.90977584      -0.90977584
C       -0.00465871       1.77757030       0.00794375
H       -0.66225468       2.44313916      -0.64384735
H        0.64322798       2.43503045       0.67728295
C       -1.78241447       0.00034974      -0.00472694
H       -2.45427497      -0.65498947       0.64260836
H       -2.43311707       0.67328779      -0.65473579
C       -0.91132561       0.90220522       0.91563759
C       -0.01476271      -0.02253852       1.78660255
H       -0.67934791      -0.69751639       2.42135241
H        0.63392994       0.61504881       2.47327442
C        0.01484550      -1.77751727      -0.01636693
H        0.67870853      -2.42144646      -0.68295456
H       -0.62264859      -2.45592969       0.64226336
C        1.78714474       0.01002794       0.00389507
H        2.44202412       0.67113390       0.66197326
H        2.45385902      -0.65136977      -0.64189061
C        0.91606151      -0.90478549       0.90901405
