185
Properties=species:S:1:pos:R:3 pbc="F F F"
C        0.00000000       0.00000000       0.00000000
C        5.47652198       9.25046867      -4.99300509
C        5.08204090       8.11520177      -4.06879348
O        5.27122203       6.89940255      -4.77148675
P        4.92103840       5.45547854      -3.88528424
O        3.40656112       5.71923417      -4.06567728
O        5.46562893       4.58303516      -5.19027576
C        5.01483745       4.87717313      -6.50420853
C        5.69037102       3.92264839      -7.47066404
C        4.55061295       3.92809072      -2.94785616
H        4.39941060       4.32016600      -1.93540323
N        3.28677978       3.27289314      -3.38173282
C        2.51115957       2.51575627      -2.50173306
C        2.80948608       2.30899109      -1.14884912
C        1.99314322       1.51279532      -0.33657540
C        0.88120909       0.88120909      -0.88120909
C        0.57706122       1.04456937      -2.22772072
C        1.38646552       1.86124732      -3.02515669
C        5.69078294       2.91055888      -2.93034467
C        5.74725661       1.86927416      -3.87576036
C        6.82537298       0.98749900      -3.90249062
C        7.85933151       1.11721803      -2.98007925
C        7.82346107       2.14622288      -2.03958060
C        6.75061557       3.04670746      -2.03070761
O        6.73568901       4.08928790      -1.15095960
H        5.30902039      10.22142709      -4.51999225
H        4.90144062       9.20619978      -5.92462070
H        6.53237553       9.16943082      -5.27144650
H        4.03113331       8.21696032      -3.78071735
H        5.70288849       8.11645879      -3.16807146
H        5.31068564       5.89407303      -6.79092363
H        3.92988605       4.79080597      -6.56312310
H        6.77784180       3.93674352      -7.33306033
H        5.46546689       4.19340125      -8.50460852
H        5.35782418       2.89631184      -7.29128725
H        2.72118406       3.97871042      -3.87407453
H        3.67530331       2.76589371      -0.68166924
H        2.24212386       1.39084545       0.71421648
H       -0.27634100       0.53989747      -2.67142996
H        1.14858435       1.96648170      -4.08193122
H        4.94922102       1.76691060      -4.60967794
H        8.70168154       0.42964928      -2.99607531
H        8.64406634       2.24336749      -1.33599439
H        7.46143710       3.96039017      -0.51326701
C        6.87954144      -0.04812484      -4.90156471
C        6.92490752      -0.91545981      -5.73828926
Br       6.99826064      -2.31786709      -7.09120209
C       -6.76083525      -4.15420395      -8.80495654
C       -5.58679756      -3.73913056      -7.94010803
O       -5.57946946      -4.57016648      -6.79247539
P       -4.28611998      -4.29995745      -5.67572376
O       -5.00036121      -3.02474640      -5.16636496
O       -4.83727362      -5.60066251      -4.80100372
C       -6.21075286      -5.72314114      -4.46232512
C       -6.40087027      -7.00662804      -3.67618513
C       -2.91801042      -4.01412939      -4.49442001
H       -2.28320789      -3.31752183      -5.05425011
N       -3.36073208      -3.33343365      -3.24724002
C       -2.50526123      -2.50558534      -2.51780233
C       -1.18273718      -2.21129928      -2.87328983
C       -0.37886631      -1.39087995      -2.07276768
C       -0.88120909      -0.88120909      -0.88120909
C       -2.18059042      -1.18043563      -0.48832525
C       -2.98315061      -1.98234158      -1.30737734
C       -2.11288507      -5.26711476      -4.15168667
C       -2.42765897      -6.04383132      -3.02080084
C       -1.73895554      -7.22449380      -2.75191326
C       -0.71536342      -7.64589462      -3.59537074
C       -0.39319900      -6.89237818      -4.72368737
C       -1.10382868      -5.71869512      -5.00550683
O       -0.83291718      -5.00613410      -6.13688523
H       -6.84594970      -3.51620440      -9.68828564
H       -7.69610980      -4.09938712      -8.23676418
H       -6.65033208      -5.19440760      -9.12851317
H       -5.69700937      -2.69271274      -7.63908886
H       -4.64491371      -3.85904809      -8.48345694
H       -6.82227873      -5.80368317      -5.36972039
H       -6.53956940      -4.85870609      -3.88553963
H       -5.97245510      -7.85906850      -4.21612204
H       -7.46126634      -7.20112681      -3.50108351
H       -5.88650065      -6.94600200      -2.71292063
H       -4.25870736      -2.86989873      -3.44536292
H       -0.73954533      -2.59904968      -3.78427124
H        0.63607078      -1.16556864      -2.38925498
H       -2.57890215      -0.80663476       0.45055048
H       -3.99239149      -2.22460503      -0.98000076
H       -3.23524528      -5.72909705      -2.36146724
H       -0.17375740      -8.56576978      -3.38787894
H        0.39772662      -7.24130305      -5.37985179
H       -0.02403966      -5.37072478      -6.54032983
C       -2.10225390      -8.02167126      -1.60905614
C       -2.40651628      -8.68930739      -0.65191330
Br      -2.89848281      -9.76881853       0.89570571
C       -6.74065439       4.16313990       8.81620145
C       -5.56857793       3.74939644       7.94806177
O       -5.56983071       4.57545907       6.79682155
P       -4.28016494       4.30599854       5.67563771
O       -4.99105357       3.02550529       5.17491372
O       -4.84074949       5.60049046       4.79769991
C       -6.21620141       5.71554896       4.46446875
C       -6.41529823       6.99477097       3.67361426
C       -2.91595201       4.02096227       4.48964555
H       -2.27570954       3.32954958       5.04972071
N       -3.36110468       3.33294075       3.24736032
C       -2.50520835       2.50563986       2.51780069
C       -1.17989097       2.21862967       2.86880565
C       -0.37593365       1.39822521       2.06835508
C       -0.88120909       0.88120909       0.88120909
C       -2.18356755       1.17309727       0.49268648
C       -2.98605351       1.97507493       1.31174110
C       -2.11777281       5.27591917       4.13799453
C       -2.44081288       6.04634197       3.00513629
C       -1.75841932       7.22879444       2.72814884
C       -0.73302744       7.65828514       3.56531621
C       -0.40270897       6.91108284       4.69547275
C       -1.10700272       5.73557097       4.98545694
O       -0.82810101       5.02911477       6.11872073
H       -6.81916982       3.52862423       9.70264568
H       -7.67813257       4.10180533       8.25232320
H       -6.63327504       5.20520899       9.13476882
H       -5.67554136       2.70121255       7.65205707
H       -4.62488115       3.87575110       8.48678649
H       -6.82413806       5.79738729       5.37415694
H       -6.54375033       4.84719922       3.89286556
H       -5.98825990       7.85139727       4.20798847
H       -7.47727789       7.18391466       3.50228411
H       -5.90484441       6.93218480       2.70839407
H       -4.25619020       2.86638882       3.45138999
H       -0.73444984       2.61225175       3.77616467
H        0.64133387       1.17868745       2.38139925
H       -2.58431080       0.79349745      -0.44282181
H       -3.99774576       2.21154181       0.98770970
H       -3.24986974       5.72525133       2.35068849
H       -0.19632897       8.57958537       3.35149178
H        0.38952515       7.26627753       5.34667584
H       -0.01907739       5.39895399       6.51706289
C       -2.13012372       8.01941567       1.58344192
C       -2.44142615       8.68156094       0.62474988
Br      -2.94477584       9.75219385      -0.92537406
C        5.41429995      -9.25670785       5.04898793
C        5.02278377      -8.12932993       4.11392245
O        5.24006718      -6.90634201       4.79570214
P        4.89790504      -5.47047500       3.89342115
O        3.38257769      -5.70911778       4.09977710
O        5.47442924      -4.58724335       5.17726726
C        5.03889816      -4.85547255       6.50184841
C        5.74252221      -3.89705540       7.44410585
C        4.53596474      -3.95160989       2.93898519
H        4.36408386      -4.35613365       1.93476232
N        3.28838830      -3.27151075       3.38150670
C        2.51095293      -2.51589281       2.50180316
C        2.79220047      -2.33332837       1.14179744
C        1.97562391      -1.53706888       0.32982115
C        0.88120909      -0.88120909       0.88120909
C        0.59468038      -1.02038478       2.23428614
C        1.40380136      -1.83723578       3.03183239
C        5.69047516      -2.95143517       2.88977618
C        5.77612740      -1.89741774       3.81874600
C        6.86727194      -1.03140607       3.81668460
C        7.88545687      -1.18986445       2.88130746
C        7.82065538      -2.23183797       1.95677120
C        6.73477200      -3.11637252       1.97688612
O        6.69161128      -4.17134244       1.11298279
H        5.22566442     -10.23187778       4.59289754
H        4.85378258      -9.19034115       5.98813737
H        6.47523043      -9.18725831       5.31076411
H        3.96635322      -8.21970951       3.84274826
H        5.63014246      -8.15292095       3.20435533
H        5.32409077      -5.87234990       6.79924162
H        3.95631361      -4.75220030       6.57530120
H        6.82751495      -3.92925662       7.29087407
H        5.52902526      -4.14933421       8.48511719
H        5.42236584      -2.86863397       7.25442347
H        2.71990650      -3.96161771       3.89244479
H        3.64424706      -2.80976814       0.66885105
H        2.21077165      -1.43416319      -0.72618201
H       -0.24460442      -0.49671233       2.68287853
H        1.18008316      -1.92350665       4.09340747
H        4.99062440      -1.77255224       4.56263292
H        8.73789355      -0.51468300       2.87482957
H        8.62924842      -2.35137728       1.24280252
H        7.40964131      -4.06252234       0.46293062
C        6.95133136       0.01776873       4.79941867
C        7.02173113       0.89645262       5.62245846
Br       7.13556159       2.31721015       6.95324419
