194
Properties=species:S:1:pos:R:3 pbc="F F F"
C        3.28298284      10.60970268      -2.61928013
C        3.75243952       9.19515110      -2.80423176
C        3.07625665       8.14110086      -2.18973975
C        3.52671524       6.83097528      -2.34818835
C        4.68363729       6.56483835      -3.08965266
C        5.37236017       7.61412223      -3.69711482
C        4.90084546       8.92506216      -3.56402961
N        5.12977767       5.22520800      -3.21605899
C        4.33498533       4.37722663      -4.11848596
C        3.42460764       3.44065510      -3.35475670
C        2.08934438       3.79097163      -3.10407162
C        1.27843561       2.97677687      -2.31271604
C        1.79150078       1.79150078      -1.79150078
C        3.10419154       1.41003889      -2.05999624
C        3.91993545       2.23576511      -2.83576326
C        6.40841186       4.77937311      -2.85012936
O        6.91682219       3.77811512      -3.36344603
C        7.18476395       5.43763961      -1.74262025
C        6.60406946       6.21018416      -0.72826756
C        7.38168001       6.74873420       0.30404881
C        8.74379364       6.47312517       0.36097280
C        9.33581906       5.66785365      -0.60715335
C        8.55983938       5.15764448      -1.65463958
H        2.29790496      10.64195700      -2.14015960
H        3.19587698      11.11376446      -3.58637324
H        3.98672640      11.15732703      -1.98525712
H        2.20152085       8.32666257      -1.57122083
H        3.01205622       6.03152046      -1.82564735
H        6.25727423       7.42361889      -4.30014566
H        5.43261854       9.73548642      -4.05624921
H        4.99739676       3.78798009      -4.76506945
H        3.74680408       5.00436242      -4.80196155
H        1.68142797       4.71809627      -3.50201369
H        0.25704393       3.28119556      -2.10160008
H        3.50747605       0.48321252      -1.66140118
H        4.95225912       1.94234378      -3.02380195
H        5.53753713       6.39112149      -0.69002253
H        6.90578984       7.36232727       1.06514397
H       10.39245682       5.41894957      -0.55213739
H        9.03409815       4.51233896      -2.39297120
C        9.53587259       7.00352401       1.44027258
C       10.19923871       7.44773303       2.34418615
Br      11.27184562       8.16598145       3.80573794
C       -4.83536948      -1.44215496     -10.23444120
C       -4.48303829      -2.25024207      -9.01854202
C       -3.75228913      -1.67712593      -7.97768220
C       -3.41052360      -2.43629275      -6.85906251
C       -3.76050890      -3.78963141      -6.78798799
C       -4.48050597      -4.37337934      -7.82971190
C       -4.85078696      -3.60198737      -8.93716290
N       -3.38122987      -4.54192688      -5.64788790
C       -4.14647911      -4.26142420      -4.42279461
C       -3.36450428      -3.40033115      -3.45518401
C       -3.53512557      -2.00778196      -3.44148009
C       -2.74139837      -1.20339815      -2.62313201
C       -1.79150078      -1.79150078      -1.79150078
C       -1.63326308      -3.17535427      -1.76560933
C       -2.41484503      -3.97702521      -2.59959358
C       -2.62254972      -5.72082759      -5.69453702
O       -2.68867558      -6.56951444      -4.80019332
C       -1.61487762      -5.96608699      -6.78405920
C       -1.03209178      -4.95332011      -7.55710930
C       -0.05851569      -5.24887258      -8.51897713
C        0.38161937      -6.55853616      -8.67902922
C       -0.14601763      -7.57548600      -7.88932244
C       -1.14170065      -7.27957703      -6.95084576
H       -4.62116361      -0.37850684     -10.08035111
H       -5.90201256      -1.53439714     -10.45960498
H       -4.25085350      -1.78497798     -11.09347907
H       -3.42927069      -0.64025738      -8.02987619
H       -2.80425116      -1.98321928      -6.08175358
H       -4.78539748      -5.41622275      -7.77941855
H       -5.42831325      -4.05951377      -9.73652715
H       -4.42372261      -5.20006822      -3.92665547
H       -5.09868484      -3.77687359      -4.67756962
H       -4.27056180      -1.53875627      -4.09221985
H       -2.86472838      -0.12427632      -2.65083487
H       -0.89834842      -3.63981925      -1.11392208
H       -2.27089043      -5.05699811      -2.59051632
H       -1.28950648      -3.91116837      -7.41800630
H        0.35970219      -4.44404636      -9.11862895
H        0.21588178      -8.59610142      -7.98332415
H       -1.52976341      -8.08326832      -6.32637656
C        1.40447712      -6.85544486      -9.64815628
C        2.26112048      -7.10410589     -10.45980018
Br       3.64624035      -7.50616975     -11.77215974
C       -1.90802728      10.45841652       4.14552184
C       -2.63770844       9.15973097       3.95438297
C       -2.03806837       8.10883979       3.26018910
C       -2.72634299       6.91141020       3.06812568
C       -4.03869617       6.76670347       3.53272867
C       -4.64978967       7.81675975       4.21704779
C       -3.94627939       9.00636813       4.43728971
N       -4.72122640       5.54536276       3.30445550
C       -4.28344883       4.41231485       4.13493424
C       -3.40757101       3.45188891       3.36055952
C       -2.00969313       3.55819321       3.41650129
C       -1.20334944       2.74081043       2.62376866
C       -1.79150078       1.79150078       1.79150078
C       -3.17653639       1.64753118       1.75015910
C       -3.98239500       2.47965799       2.52941083
C       -5.95422377       5.43962566       2.64406490
O       -6.71890706       4.49183429       2.84764199
C       -6.36424997       6.42067763       1.58009621
C       -5.46581569       7.21787846       0.85882704
C       -5.91271626       8.07106350      -0.15741436
C       -7.26077029       8.09429857      -0.49912284
C       -8.16618279       7.27568762       0.16895565
C       -7.71917297       6.44759352       1.20535695
H       -0.85467912      10.36853047       3.85681198
H       -1.93712946      10.76296411       5.19592112
H       -2.36385472      11.23785616       3.52759967
H       -1.03658715       8.21294398       2.84987312
H       -2.25822331       6.12353099       2.48746973
H       -5.65874277       7.71259760       4.60969841
H       -4.42282529       9.81345854       4.98807034
H       -5.15425509       3.87076134       4.52542986
H       -3.75052995       4.78071897       5.02187913
H       -1.54128150       4.30104117       4.05921526
H       -0.12392911       2.86053752       2.65537295
H       -3.64029837       0.90413139       1.10765999
H       -5.06576254       2.37667648       2.47596584
H       -4.39920527       7.18007860       1.03939728
H       -5.19412513       8.69369733      -0.68484933
H       -9.21562335       7.26170560      -0.11378516
H       -8.43688581       5.79790231       1.70462018
C       -7.71336304       8.95053670      -1.56477573
C       -8.09240946       9.66763614      -2.45726001
Br      -8.70529548      10.82712528      -3.90033162
C        3.69697981      -2.25870966      10.55627617
C        3.61334979      -2.92537189       9.21310070
C        2.94276138      -2.30600739       8.15832849
C        2.85071402      -2.93695128       6.91821357
C        3.39307210      -4.21366979       6.73138641
C        4.05448164      -4.84492049       7.78419509
C        4.17420121      -4.19690006       9.01883595
N        3.26584073      -4.83945397       5.46574996
C        4.12868967      -4.29815907       4.40384919
C        3.35840048      -3.41241980       3.44919917
C        3.33243543      -2.02140207       3.63055013
C        2.54023522      -1.21375228       2.81394103
C        1.79150078      -1.79150078       1.79150078
C        1.83327209      -3.16690293       1.57405166
C        2.61124054      -3.97557046       2.40465282
C        2.68004385      -6.09734968       5.26052080
O        2.97377471      -6.79764132       4.28696730
C        1.59071275      -6.61475644       6.15955462
C        0.78124693      -5.79965203       6.96162223
C       -0.25186744      -6.34438565       7.73384719
C       -0.52027797      -7.70756590       7.66865809
C        0.23763559      -8.53121185       6.84197862
C        1.28954921      -7.98669529       6.09587894
H        3.35627805      -1.21837007      10.50537344
H        4.73024415      -2.25001690      10.91575364
H        3.06535871      -2.78772187      11.27622998
H        2.47359389      -1.33425894       8.29155141
H        2.28691388      -2.45720972       6.12510043
H        4.50644431      -5.82503013       7.64956433
H        4.70767661      -4.68763703       9.82904053
H        4.59358904      -5.11676559       3.84009167
H        4.96500269      -3.74097206       4.84715330
H        3.90936157      -1.56159599       4.43058036
H        2.50667839      -0.14228204       2.99087915
H        1.25633510      -3.62203130       0.77372335
H        2.62236771      -5.05301975       2.24301740
H        0.90508039      -4.72465849       6.98894227
H       -0.84920914      -5.68906864       8.36311363
H        0.01366211      -9.59154363       6.75833805
H        1.86015032      -8.64111759       5.43814039
C       -1.60251144      -8.26069761       8.44093785
C       -2.50888197      -8.72394542       9.08772214
Br      -3.97440646      -9.47297795      10.13351765
C       -0.00445707       0.01189536      -1.78238275
H       -0.66409135       0.67374010      -2.43557963
H        0.65740317      -0.63156657      -2.45157240
C       -0.90989263      -0.90692880      -0.91072765
C        0.90977584       0.90977584      -0.90977584
C       -0.00465871       1.77757030       0.00794375
H       -0.66225468       2.44313916      -0.64384735
H        0.64322798       2.43503045       0.67728295
C       -1.78241447       0.00034974      -0.00472694
H       -2.45427497      -0.65498947       0.64260836
H       -2.43311707       0.67328779      -0.65473579
C       -0.91132561       0.90220522       0.91563759
C       -0.01476271      -0.02253852       1.78660255
H       -0.67934791      -0.69751639       2.42135241
H        0.63392994       0.61504881       2.47327442
C        0.01484550      -1.77751727      -0.01636693
H        0.67870853      -2.42144646      -0.68295456
H       -0.62264859      -2.45592969       0.64226336
C        1.78714474       0.01002794       0.00389507
H        2.44202412       0.67113390       0.66197326
H        2.45385902      -0.65136977      -0.64189061
C        0.91606151      -0.90478549       0.90901405
