165
Properties=species:S:1:pos:R:3 pbc="F F F"
C        0.00000000       0.00000000       0.00000000
C        2.37307881       9.69979865      -1.70937610
C        2.84253550       8.28524708      -1.89432773
C        2.16635262       7.23119684      -1.27983572
C        2.61681122       5.92107126      -1.43828432
C        3.77373327       5.65493432      -2.17974864
C        4.46245615       6.70421821      -2.78721079
C        3.99094143       8.01515814      -2.65412558
N        4.21987365       4.31530397      -2.30615496
C        3.42508130       3.46732261      -3.20858193
C        2.51470362       2.53075108      -2.44485267
C        1.17944035       2.88106760      -2.19416760
C        0.36853159       2.06687285      -1.40281202
C        0.88159675       0.88159675      -0.88159675
C        2.19428752       0.50013487      -1.15009221
C        3.01003143       1.32586108      -1.92585924
C        5.49850783       3.86946909      -1.94022534
O        6.00691817       2.86821110      -2.45354200
C        6.27485993       4.52773559      -0.83271622
C        5.69416544       5.30028014       0.18163647
C        6.47177599       5.83883018       1.21395284
C        7.83388962       5.56322115       1.27087683
Br       8.87304836       6.25907172       2.68685159
C        8.42591504       4.75794963       0.30275067
C        7.64993535       4.24774046      -0.74473556
H        1.38800094       9.73205298      -1.23025558
H        2.28597295      10.20386044      -2.67646922
H        3.07682238      10.24742301      -1.07535309
H        1.29161682       7.41675855      -0.66131680
H        2.10215220       5.12161643      -0.91574333
H        5.34737021       6.51371486      -3.39024163
H        4.52271451       8.82558240      -3.14634518
H        4.08749273       2.87807606      -3.85516543
H        2.83690006       4.09445839      -3.89205753
H        0.77152395       3.80819225      -2.59210966
H       -0.65286010       2.37129154      -1.19169605
H        2.59757202      -0.42669150      -0.75149715
H        4.04235510       1.03243976      -2.11389793
H        4.62763310       5.48121747       0.21988149
H        5.99588582       6.45242324       1.97504800
H        9.48255280       4.50904555       0.35776663
H        8.12419412       3.60243493      -1.48306717
C       -7.40281694       0.51765671      -6.89709333
C       -6.31136775      -0.35842208      -6.35232048
C       -5.39192336       0.14836027      -5.43382210
C       -4.36836630      -0.66274282      -4.94505767
C       -4.22839101      -1.97843842      -5.40158681
C       -5.13607010      -2.48895265      -6.32886240
C       -6.18203474      -1.68396838      -6.79422203
N       -3.16558813      -2.77296425      -4.90278021
C       -3.32907106      -3.25109269      -3.52082210
C       -2.48551634      -2.45777601      -2.54701502
C       -3.03465465      -1.37272859      -1.84729231
C       -2.23280843      -0.57736036      -1.02804767
C       -0.88159675      -0.88159675      -0.88159675
C       -0.32728122      -1.97675241      -1.54048098
C       -1.12691112      -2.75965428      -2.37518635
C       -2.20189467      -3.39987701      -5.70643058
O       -1.59642829      -4.40638834      -5.32585464
C       -1.78356532      -2.82134072      -7.03040570
C       -1.94901142      -1.47661704      -7.38718065
C       -1.48590905      -0.99365499      -8.61708929
C       -0.80242847      -1.84246512      -9.48134035
Br      -0.14450740      -1.17791166     -11.12284942
C       -0.58188982      -3.17037280      -9.12885138
C       -1.07433968      -3.65623253      -7.91183916
H       -7.46769991       1.46167166      -6.34428125
H       -8.37267641       0.01855942      -6.81218562
H       -7.20473718       0.75237659      -7.94723789
H       -5.45213469       1.18084865      -5.09840613
H       -3.63839970      -0.23553424      -4.26557802
H       -5.05976563      -3.51758521      -6.67397587
H       -6.89668755      -2.09521375      -7.50274080
H       -3.05627856      -4.31175933      -3.45269633
H       -4.38738402      -3.20554492      -3.23048704
H       -4.08800187      -1.12366241      -1.96016158
H       -2.66844852       0.27889010      -0.52056908
H        0.72471206      -2.22251522      -1.42457451
H       -0.68226082      -3.60165733      -2.90477463
H       -2.40970584      -0.76215706      -6.71710617
H       -1.64830941       0.05005806      -8.87500970
H       -0.01934000      -3.83228956      -9.78220216
H       -0.87563436      -4.69253455      -7.64152732
C       -4.13823662       9.23851330       0.40550365
C       -4.23655732       7.84041454       0.94513845
C       -3.46434535       6.81631822       0.39672161
C       -3.57273505       5.51569975       0.88773200
C       -4.48579131       5.21697435       1.90565058
C       -5.27021712       6.23264957       2.45101846
C       -5.13724000       7.54356898       1.97941618
N       -4.58925054       3.88170207       2.37037997
C       -3.47392687       3.41692872       3.21013026
C       -2.53100596       2.51438898       2.44491243
C       -1.37686994       3.03628748       1.84151813
C       -0.56166843       2.22662151       1.04992652
C       -0.88159675       0.88159675       0.88159675
C       -2.00389356       0.33798227       1.50263877
C       -2.82914671       1.15431016       2.27829489
C       -5.77984689       3.14025423       2.38810113
O       -5.94852023       2.20445036       3.17570067
C       -6.87222348       3.38072192       1.38236633
C       -6.67411228       3.99824718       0.14044964
C       -7.72715158       4.14074977      -0.77124803
C       -8.97969182       3.61644936      -0.46990724
Br     -10.38819416       3.77587971      -1.71880539
C       -9.18971041       2.95515643       0.73624715
C       -8.14183534       2.84289497       1.65768106
H       -3.28950431       9.34096372      -0.28015853
H       -3.99214094       9.95399015       1.22017152
H       -5.05017562       9.49253100      -0.14310814
H       -2.78100717       7.01419031      -0.42550530
H       -2.99558676       4.72661586       0.41730934
H       -5.96500662       6.02471957       3.26160051
H       -5.73874803       8.33323735       2.42265671
H       -3.85828166       2.87748423       4.08496833
H       -2.92730729       4.27768223       3.61842646
H       -1.12207998       4.08737796       1.96236791
H        0.30947179       2.65639096       0.56320833
H       -2.25443474      -0.71212703       1.38006996
H       -3.71741724       0.72790191       2.74337363
H       -5.70060838       4.35680740      -0.16844670
H       -7.54765257       4.64388701      -1.71827852
H      -10.15544335       2.51239334       0.96599503
H       -8.31679356       2.30458443       2.58831824
C        6.52434593       0.47798313       7.73589076
C        5.60686449      -0.43776511       6.97748071
C        4.73585891       0.07407216       6.01559843
C        3.87189041      -0.77696599       5.32731040
C        3.84043998      -2.14459997       5.62337629
C        4.69934398      -2.66239136       6.59214980
C        5.58861918      -1.81228740       7.25931857
N        2.93682257      -2.98221206       4.92229795
C        3.29974544      -3.27462311       3.52661730
C        2.47578976      -2.46535691       2.54916070
C        2.96397057      -1.25387430       2.03683068
C        2.16471493      -0.45637853       1.21712300
C        0.88159675      -0.88159675       0.88159675
C        0.39378474      -2.09880167       1.35192819
C        1.18776051      -2.88603862       2.18795262
C        1.97446656      -3.79709072       5.53664498
O        1.53496798      -4.80987351       4.98382977
C        1.35417174      -3.42549390       6.85564610
C        1.32187898      -2.12218086       7.36874927
C        0.67850000      -1.83860325       8.57955008
C        0.01257958      -2.85027805       9.26337632
Br      -0.88779880      -2.45627182      10.87679546
C       -0.01195891      -4.14328013       8.74979278
C        0.65938553      -4.42815155       7.55487429
H        6.53548169       1.48202219       7.29685000
H        7.54969256       0.09705639       7.71366644
H        6.19076425       0.56542532       8.77425955
H        4.70912607       1.13941540       5.79998151
H        3.17222855      -0.35190551       4.61537789
H        4.70871240      -3.72675914       6.81585517
H        6.26822922      -2.22660969       7.99980318
H        3.16228634      -4.34266929       3.31577860
H        4.36996685      -3.08426374       3.36918539
H        3.96297209      -0.91049213       2.29836163
H        2.54752459       0.49463026       0.85723317
H       -0.60394913      -2.43842229       1.08790451
H        0.79205382      -3.82652597       2.57011299
H        1.76319637      -1.28942927       6.83634344
H        0.68899511      -0.82122505       8.96304090
H       -0.55827909      -4.93288455       9.25922625
H        0.61347065      -5.44056975       7.15565583
