194
Properties=species:S:1:pos:R:3 pbc="F F F"
C        1.79148594       1.79148594      -1.79148594
C        2.37955041       1.25544376      -2.93713694
C        3.18773006       2.05976897      -3.74789693
C        3.39409185       3.40699379      -3.41797686
C        2.81348355       3.92718274      -2.25191837
C        2.00976711       3.12192674      -1.44108590
C        4.24072584       4.31511321      -4.24924987
O        4.82017907       5.23682207      -3.68686344
N        4.25907398       4.03458103      -5.60462355
C        4.98080026       4.71202892      -6.61439230
C        5.81208394       5.81621119      -6.36982087
C        6.51427222       6.46264268      -7.39973730
C        6.34116946       5.93440155      -8.66920374
O        6.90748247       6.36394846      -9.83031265
C        6.42086540       5.49876921     -10.78479074
N        5.59648748       4.58039601     -10.30927637
C        5.53949759       4.84876722      -8.96455860
C        4.83710594       4.22034368      -7.92675959
C        6.88811613       5.74271990     -12.15668830
C        7.14161994       7.07681746     -12.52778413
C        7.57791536       7.39453810     -13.80436004
C        7.77021604       6.38006825     -14.73552151
C        7.53594149       5.02043304     -14.42428964
C        7.73547712       3.97158677     -15.36316928
Br       8.33543533       4.28373977     -17.14923653
C        7.50587030       2.63515947     -15.02885209
C        7.07534435       2.31122075     -13.75384045
C        6.87294813       3.32264967     -12.81505248
C        7.08562439       4.69388062     -13.10994049
H        2.22373581       0.21177323      -3.20020345
H        3.66823722       1.60677788      -4.61017030
H        2.98627466       4.96556189      -1.97201251
H        1.56496136       3.54165779      -0.54199154
H        3.65515769       3.29242938      -5.93118752
H        5.93848563       6.21453536      -5.36622655
H        7.15325354       7.31672794      -7.21380126
H        4.20879771       3.36907425      -8.15944762
H        6.98973787       7.88605747     -11.81490368
H        7.76753668       8.42951808     -14.07702452
H        8.11446549       6.67710631     -15.72383876
H        7.66284152       1.84277153     -15.75565395
H        6.89608024       1.27426333     -13.48240637
H        6.54053142       3.01055148     -11.82681544
C       -1.79148594      -1.79148594      -1.79148594
C       -1.77955234      -3.17537873      -1.61720004
C       -2.58602362      -3.98681706      -2.42255526
C       -3.41678857      -3.40896465      -3.39330928
C       -3.40315447      -2.01777718      -3.57165301
C       -2.59450266      -1.20890440      -2.76937268
C       -4.30414329      -4.22406864      -4.27687699
O       -4.55880385      -3.79064794      -5.39441279
N       -4.78356550      -5.39636322      -3.71834986
C       -5.62056552      -6.36036010      -4.32629585
C       -6.10652414      -6.25290722      -5.63868463
C       -6.93560519      -7.23243822      -6.20860878
C       -7.23407974      -8.31465502      -5.39603999
O       -8.00249247      -9.39551601      -5.70373510
C       -7.96811494     -10.17042292      -4.56588749
N       -7.25135166      -9.65217790      -3.58263030
C       -6.78001524      -8.47198510      -4.10082308
C       -5.96115810      -7.48043115      -3.54261996
C       -8.73062801     -11.42508038      -4.63181594
C       -9.90211618     -11.43167131      -5.41243405
C      -10.68308779     -12.57138632      -5.52233939
C      -10.30449696     -13.72923221      -4.85207663
C       -9.13796446     -13.78817288      -4.05452683
C       -8.73387520     -14.96673442      -3.36962356
Br      -9.72490032     -16.59752036      -3.44599095
C       -7.57221881     -15.00250703      -2.59515603
C       -6.78531870     -13.86900120      -2.48608565
C       -7.16069520     -12.70079649      -3.14915860
C       -8.33468566     -12.61397456      -3.94078528
H       -1.13860580      -3.63107703      -0.86602965
H       -2.52584186      -5.06378229      -2.29556124
H       -4.02577190      -1.55925836      -4.33881879
H       -2.59785899      -0.13185791      -2.91889379
H       -4.55582940      -5.57355696      -2.74938823
H       -5.85856255      -5.39796168      -6.26272330
H       -7.31445011      -7.14979479      -7.21953784
H       -5.60559289      -7.60482085      -2.52690584
H      -10.21925188     -10.53255753      -5.93888961
H      -11.58618443     -12.56075048      -6.12714437
H      -10.94755940     -14.59889951      -4.96895165
H       -7.27410772     -15.91000885      -2.07715044
H       -5.87803681     -13.88664183      -1.88807131
H       -6.50201186     -11.84211044      -3.03377604
C       -1.79148594       1.79148594       1.79148594
C       -2.03730857       3.11364960       1.42117293
C       -2.84477422       3.92477784       2.22584389
C       -3.41883900       3.40521341       3.39501009
C       -3.14627281       2.08028091       3.76603095
C       -2.33667079       1.27248395       2.96362501
C       -4.29459878       4.22146467       4.28902547
O       -4.31000832       3.94998615       5.48387011
N       -5.03916661       5.20228750       3.65682446
C       -5.93032680       6.12466999       4.25222469
C       -6.19816120       6.17069989       5.62925489
C       -7.08965641       7.10298048       6.18401531
C       -7.67901716       7.97920317       5.28655443
O       -8.56594417       8.97495405       5.56084535
C       -8.82565845       9.54450861       4.33425829
N       -8.18043595       8.97659408       3.32912984
C       -7.44820774       7.98013331       3.92448236
C       -6.56298458       7.03663042       3.38459421
C       -9.77067548      10.66999619       4.34685266
C      -10.80248381      10.63967819       5.30405954
C      -11.73989187      11.65780315       5.37911848
C      -11.66121157      12.72872420       4.49587003
C      -10.64767193      12.81940158       3.51359066
C      -10.54970081      13.91172158       2.60881079
Br     -11.77928035      15.37305898       2.61607231
C       -9.53371693      13.98298166       1.65318327
C       -8.59145015      12.97190250       1.57705289
C       -8.66628563      11.89013113       2.45423353
C       -9.68326410      11.77019688       3.43598452
H       -1.59638725       3.52376111       0.51556413
H       -2.98520050       4.96244936       1.93753553
H       -3.56655135       1.67273236       4.68456534
H       -2.13757979       0.24666118       3.26436972
H       -4.98568045       5.24496481       2.64812933
H       -5.72326471       5.47722765       6.31875518
H       -7.30039089       7.13791455       7.24547729
H       -6.38265400       7.03827210       2.31639349
H      -10.88530014       9.80575105       5.99964783
H      -12.53223538      11.61961113       6.12223278
H      -12.41774960      13.50440188       4.59325909
H       -9.46965378      14.82378293       0.96783029
H       -7.79522830      13.01866697       0.83885467
H       -7.89614318      11.12765297       2.35410218
C        1.79148594      -1.79148594       1.79148594
C        2.87018312      -1.22847420       2.47347379
C        3.68028643      -2.03253489       3.28257463
C        3.39939485      -3.39950880       3.42015885
C        2.32409298      -3.95625528       2.71223639
C        1.51820356      -3.15299038       1.90158581
C        4.22465796      -4.30520739       4.27522358
O        4.30376408      -5.48531482       3.95478569
N        4.80266098      -3.71154379       5.38407380
C        5.63978059      -4.31944716       6.34799373
C        6.01239153      -5.67223565       6.31348881
C        6.84725584      -6.24009852       7.28929784
C        7.28639373      -5.37739408       8.28098694
O        8.10265685      -5.66803422       9.33105251
C        8.23377692      -4.47119946       9.99944896
N        7.55954757      -3.47278221       9.45383009
C        6.95388613      -4.03885151       8.36008578
C        6.11135875      -3.48908500       7.38376546
C        9.08512054      -4.50546667      11.19693713
C        9.10296270      -5.69727069      11.94598815
C        9.87315797      -5.81101696      13.09263856
C       10.64281571      -4.73149206      13.51149802
C       10.67039579      -3.50833314      12.80193524
C       11.45817268      -2.39862142      13.21343908
Br      12.56044719      -2.43533697      14.77262747
C       11.47562851      -1.20389124      12.49036212
C       10.71276972      -1.08625198      11.34138385
C        9.93209220      -2.16136911      10.91718897
C        9.87626762      -3.39133009      11.62184779
H        3.09411682      -0.16904065       2.37255502
H        4.53888883      -1.57806510       3.76823146
H        2.11065783      -5.02140939       2.79178183
H        0.68686746      -3.60001502       1.36172821
H        4.57027115      -2.74424086       5.56426259
H        5.66082424      -6.33320177       5.52522152
H        7.13303992      -7.28419659       7.26654622
H        5.85129624      -2.43933153       7.44669182
H        8.50116426      -6.55125546      11.63827929
H        9.87518753      -6.73698293      13.66190883
H       11.23175564      -4.86765759      14.41599733
H       12.08267749      -0.36326583      12.81532369
H       10.72097680      -0.16193636      10.76983678
H        9.35766334      -2.01595632      10.00427867
C       -0.00445707       0.01189536      -1.78238275
H       -0.66409135       0.67374010      -2.43557963
H        0.65740317      -0.63156657      -2.45157240
C       -0.90989263      -0.90692880      -0.91072765
C        0.90977584       0.90977584      -0.90977584
C       -0.00465871       1.77757030       0.00794375
H       -0.66225468       2.44313916      -0.64384735
H        0.64322798       2.43503045       0.67728295
C       -1.78241447       0.00034974      -0.00472694
H       -2.45427497      -0.65498947       0.64260836
H       -2.43311707       0.67328779      -0.65473579
C       -0.91132561       0.90220522       0.91563759
C       -0.01476271      -0.02253852       1.78660255
H       -0.67934791      -0.69751639       2.42135241
H        0.63392994       0.61504881       2.47327442
C        0.01484550      -1.77751727      -0.01636693
H        0.67870853      -2.42144646      -0.68295456
H       -0.62264859      -2.45592969       0.64226336
C        1.78714474       0.01002794       0.00389507
H        2.44202412       0.67113390       0.66197326
H        2.45385902      -0.65136977      -0.64189061
C        0.91606151      -0.90478549       0.90901405
