149
Properties=species:S:1:pos:R:3 pbc="F F F"
C        0.00000000       0.00000000       0.00000000
C        0.88193988       0.88193988      -0.88193988
C        0.63731313       2.24742069      -0.94622586
C        1.42718590       3.04683258      -1.77122941
C        2.45627400       2.48135064      -2.54893120
C        2.74685601       1.09996123      -2.43092463
C        1.92955125       0.31177915      -1.60707670
N        3.84687928       0.54858888      -3.14172001
C        4.40356435      -0.70613685      -2.98562573
O        4.04270698      -1.56462037      -2.18645179
C        5.58532878      -1.01895917      -3.82831567
C        6.54455566      -1.91251155      -3.32601514
C        7.65151348      -2.27023174      -4.10004802
C        7.79580081      -1.74168595      -5.38221660
Br       9.28271958      -2.23886171      -6.43745319
C        6.84791640      -0.85791252      -5.89445952
C        5.74897617      -0.50183885      -5.11337488
F        4.84099143       0.33198215      -5.64073025
C        3.25896008       3.36546746      -3.45274435
O        4.40803745       3.05196014      -3.75705223
C        2.70007135       4.62763451      -4.00167695
C        1.39172795       4.69462107      -4.49705936
C        0.89069438       5.90690967      -4.97535754
C        1.69871025       7.04428335      -4.97916486
C        3.01359278       6.97080841      -4.51835117
C        3.51796523       5.76227215      -4.03508678
H       -0.16126037       2.69746476      -0.36142380
H        1.23016393       4.11653151      -1.78442273
H        2.08312995      -0.75945656      -1.52269277
H        4.35282344       1.21612777      -3.73079612
H        6.42717388      -2.33692355      -2.32996969
H        8.38605395      -2.96388294      -3.69693661
H        6.94294989      -0.44672373      -6.89502455
H        0.75515859       3.81362677      -4.52184840
H       -0.12858162       5.96534928      -5.35004892
H        1.30712668       7.98763224      -5.35350836
H        3.64650592       7.85498170      -4.53713998
H        4.54488833       5.70879808      -3.68021295
C       -0.88193988      -0.88193988      -0.88193988
C       -0.91298545      -2.25321062      -0.66476362
C       -1.69889659      -3.05943175      -1.48691956
C       -2.44580839      -2.49931290      -2.54143454
C       -2.46487862      -1.09404702      -2.71881624
C       -1.65459812      -0.30350171      -1.89030725
N       -3.29432340      -0.52200793      -3.72085684
C       -3.60223534       0.81353990      -3.89435780
O       -3.21377884       1.74356351      -3.19432307
C       -4.53689740       1.14238223      -5.00017010
C       -5.36473249       2.26762192      -4.86094869
C       -6.22963962       2.64117088      -5.89286101
C       -6.26092733       1.89474263      -7.07014675
Br      -7.41671352       2.40943244      -8.47402998
C       -5.44037285       0.77881824      -7.22290878
C       -4.58404897       0.40963916      -6.18610238
F       -3.78927845      -0.65447400      -6.36995137
C       -3.24807096      -3.40111813      -3.42798280
O       -4.24151887      -2.96757417      -4.00795678
C       -2.87354635      -4.82413595      -3.63170052
C       -1.54196573      -5.20934882      -3.83209383
C       -1.22496572      -6.56016503      -3.98783084
C       -2.23510436      -7.52225267      -3.96480143
C       -3.56586441      -7.13671563      -3.80017232
C       -3.88768275      -5.78794746      -3.63969394
H       -0.33252465      -2.70249850       0.13739497
H       -1.72426788      -4.12700948      -1.27984082
H       -1.59897121       0.77274298      -2.02013794
H       -3.81917661      -1.20073337      -4.27983735
H       -5.33251092       2.85991587      -3.94762497
H       -6.86475519       3.51566381      -5.77001624
H       -5.44758851       0.19460464      -8.13826684
H       -0.74455338      -4.47156821      -3.87451217
H       -0.19074728      -6.86401309      -4.13205619
H       -1.98642604      -8.57412152      -4.08771973
H       -4.35307533      -7.88704268      -3.79850959
H       -4.92695798      -5.49163601      -3.51530538
C       -0.88193988       0.88193988       0.88193988
C       -2.20634255       0.52527780       1.09933933
C       -3.01662737       1.34480510       1.88381543
C       -2.51003534       2.53450780       2.44201269
C       -1.14199103       2.86148685       2.27426399
C       -0.34901655       2.03111145       1.46827909
N       -0.60858397       4.01050813       2.91809607
C        0.72185266       4.36070149       3.04420440
O        1.68208705       3.72233180       2.62429365
C        1.01401118       5.59882379       3.80987267
C        2.22951416       5.67997204       4.50760137
C        2.56719629       6.84158106       5.20694499
C        1.69322028       7.92798466       5.20156708
Br       2.15680678       9.50651379       6.13160405
C        0.48607202       7.86206326       4.50847215
C        0.15420131       6.69711260       3.81760090
F       -1.00276714       6.67047070       3.14046600
C       -3.42061726       3.40937405       3.24718057
O       -2.95609828       4.14658666       4.11436488
C       -4.88950304       3.41428388       3.02559590
C       -5.43543124       3.41219185       1.73578529
C       -6.82119502       3.38428940       1.56747716
C       -7.66061378       3.37967178       2.68187290
C       -7.11872067       3.41700432       3.96702737
C       -5.73389981       3.44058336       4.14084098
H       -2.61592312      -0.38365464       0.66535971
H       -4.04305440       1.02976462       2.05829915
H        0.69196285       2.26721031       1.27111871
H       -1.28940156       4.55266821       3.45767757
H        2.91974166       4.83761287       4.50234881
H        3.51270836       6.88920362       5.74261236
H       -0.19908399       8.70430690       4.48785982
H       -4.79709966       3.43745367       0.85608043
H       -7.24844589       3.37089840       0.56747228
H       -8.74008773       3.35935168       2.54882788
H       -7.77538661       3.42942059       4.83382039
H       -5.31591734       3.47335694       5.14462508
C        0.88193988      -0.88193988       0.88193988
C        2.24907894      -0.64451334       0.93736739
C        3.05585300      -1.46635308       1.72304181
C        2.50077173      -2.54060150       2.44518260
C        1.09827377      -2.73952895       2.43993916
C        0.30744340      -1.91072517       1.63023852
N        0.52921706      -3.76276570       3.24520542
C       -0.80801557      -3.96120100       3.52986780
O       -1.74270683      -3.26944519       3.13780004
C       -1.13392994      -5.08611902       4.44249620
C       -2.27359330      -4.97671766       5.25493490
C       -2.64428392      -6.02735711       6.09825657
C       -1.88039012      -7.19353923       6.12318235
Br      -2.39087317      -8.62267698       7.24950725
C       -0.74994188      -7.31673122       5.31767405
C       -0.38382548      -6.26139712       4.48294055
F        0.69491123      -6.41685062       3.70194198
C        3.40385056      -3.42562175       3.24769957
O        2.96427767      -4.02731506       4.22545709
C        4.83534603      -3.60196684       2.89206994
C        5.24372949      -3.77598869       1.56369020
C        6.60143029      -3.90634338       1.26518792
C        7.54763283      -3.88428301       2.29024262
C        7.13948799      -3.74600931       3.61725507
C        5.78368877      -3.61095746       3.92067793
H        2.69471566       0.17319711       0.37610964
H        4.11961122      -1.24353621       1.76797074
H       -0.76570985      -2.05597782       1.55609819
H        1.20843170      -4.31940665       3.77190898
H       -2.87931328      -4.07208607       5.22744723
H       -3.53008678      -5.92756387       6.72163054
H       -0.15189017      -8.22313438       5.32000650
H        4.51885660      -3.81730759       0.75446956
H        6.92309786      -4.03001848       0.23370024
H        8.60491578      -3.98740773       2.05594378
H        7.87768603      -3.74508943       4.41585213
H        5.46978466      -3.50707812       4.95703659
