157
Properties=species:S:1:pos:R:3 pbc="F F F"
C        0.00000000       0.00000000       0.00000000
C        0.88193988       0.88193988      -0.88193988
C        0.63731313       2.24742069      -0.94622586
C        1.42718590       3.04683258      -1.77122941
C        2.45627400       2.48135064      -2.54893120
C        2.74685601       1.09996123      -2.43092463
C        1.92955125       0.31177915      -1.60707670
N        3.84687928       0.54858888      -3.14172001
C        4.40356435      -0.70613685      -2.98562573
O        4.04270698      -1.56462037      -2.18645179
C        5.58532878      -1.01895917      -3.82831567
C        6.54455566      -1.91251155      -3.32601514
C        7.65151348      -2.27023174      -4.10004802
C        7.79580081      -1.74168595      -5.38221660
C        6.84791640      -0.85791252      -5.89445952
C        5.74897617      -0.50183885      -5.11337488
F        4.84099143       0.33198215      -5.64073025
C        3.25896008       3.36546746      -3.45274435
O        4.40803745       3.05196014      -3.75705223
C        2.70007135       4.62763451      -4.00167695
C        1.39172795       4.69462107      -4.49705936
C        0.89069438       5.90690967      -4.97535754
C        1.69871025       7.04428335      -4.97916486
C        3.01359278       6.97080841      -4.51835117
C        3.51796523       5.76227215      -4.03508678
H       -0.16126037       2.69746476      -0.36142380
H        1.23016393       4.11653151      -1.78442273
H        2.08312995      -0.75945656      -1.52269277
H        4.35282344       1.21612777      -3.73079612
H        6.42717388      -2.33692355      -2.32996969
H        8.38605395      -2.96388294      -3.69693661
H        6.94294989      -0.44672373      -6.89502455
H        0.75515859       3.81362677      -4.52184840
H       -0.12858162       5.96534928      -5.35004892
H        1.30712668       7.98763224      -5.35350836
H        3.64650592       7.85498170      -4.53713998
H        4.54488833       5.70879808      -3.68021295
C        8.92876498      -2.12051117      -6.18625867
C        9.87762247      -2.43777728      -6.85964390
Br      11.41184479      -2.95076975      -7.94845087
C       -0.88193988      -0.88193988      -0.88193988
C       -0.91613552      -2.25271295      -0.66211121
C       -1.70201520      -3.05900590      -1.48422680
C       -2.44572520      -2.49950239      -2.54132824
C       -2.46165652      -1.09455614      -2.72152921
C       -1.65145126      -0.30397460      -1.89298123
N       -3.28797943      -0.52286494      -3.72634380
C       -3.59289729       0.81294307      -3.90309901
O       -3.20398334       1.74358264      -3.20413770
C       -4.52471406       1.14144091      -5.01141213
C       -5.35058936       2.26859131      -4.87606121
C       -6.21270909       2.64180412      -5.91042478
C       -6.24314660       1.89310532      -7.08629018
C       -5.42450660       0.77525775      -7.23521455
C       -4.57097110       0.40644150      -6.19598260
F       -3.77795063      -0.65960567      -6.37614753
C       -3.24801837      -3.40147442      -3.42767909
O       -4.23945411      -2.96711585      -4.01047985
C       -2.87591479      -4.82563226      -3.62783576
C       -1.54470682      -5.21387741      -3.82482415
C       -1.23007939      -6.56562485      -3.97725735
C       -2.24216817      -7.52566315      -3.95432714
C       -3.57248413      -7.13716641      -3.79310182
C       -3.89194333      -5.78744805      -3.63593277
H       -0.33815639      -2.70155700       0.14208520
H       -1.72991414      -4.12611842      -1.27508561
H       -1.59343254       0.77189819      -2.02483181
H       -3.81307031      -1.20165748      -4.28501954
H       -5.31900117       2.86263094      -3.96384979
H       -6.84633062       3.51779470      -5.79057171
H       -5.43106892       0.18924491      -8.14942670
H       -0.74575007      -4.47776257      -3.86712113
H       -0.19618223      -6.87180537      -4.11882897
H       -1.99533410      -8.57826404      -4.07466915
H       -4.36118369      -7.88592869      -3.79151521
H       -4.93087294      -5.48883346      -3.51419297
C       -7.12090366       2.28489544      -8.15850426
C       -7.85602520       2.61301967      -9.05648356
Br      -9.04465456       3.14356879     -10.50844013
C       -0.88193988       0.88193988       0.88193988
C       -2.21035888       0.53321620       1.08738460
C       -3.02039374       1.35292611       1.87192804
C       -2.50937572       2.53498912       2.44219099
C       -1.13788261       2.85336724       2.28649202
C       -0.34508050       2.02308603       1.48024056
N       -0.60095136       3.99395179       2.94228502
C        0.73100112       4.33372710       3.08032725
O        1.68965836       3.69150798       2.66268877
C        1.02645765       5.56426751       3.85687542
C        2.23748958       5.63177739       4.56377144
C        2.57839850       6.78595366       5.27377460
C        1.71221226       7.87858470       5.26995901
C        0.50960955       7.82620834       4.56786460
C        0.17442751       6.66858898       3.86635073
F       -0.97783331       6.65501837       3.18085215
C       -3.41945786       3.41060499       3.24710903
O       -2.95592841       4.13830946       4.12281195
C       -4.88665117       3.42758138       3.01515025
C       -5.42335113       3.43854005       1.72151721
C       -6.80804008       3.42173399       1.54318752
C       -7.65541117       3.41520843       2.65153886
C       -7.12246283       3.43955037       3.94073916
C       -5.73878676       3.45200091       4.12453648
H       -2.62326605      -0.36966511       0.64402725
H       -4.05025032       1.04399740       2.03687045
H        0.69892971       2.25313403       1.29216185
H       -1.28174350       4.53712084       3.48088299
H        2.92174384       4.78456665       4.55739721
H        3.52037325       6.82301825       5.81646262
H       -0.16938951       8.67345080       4.54841040
H       -4.77858739       3.46548055       0.84656582
H       -7.22821947       3.41849041       0.54010669
H       -8.73402397       3.40354580       2.51069751
H       -7.78520045       3.45050863       4.80291851
H       -5.32776480       3.47466550       5.13146907
C        2.06889551       9.07373985       5.98966814
C        2.36761773      10.07468229       6.59242453
Br       2.85062630      11.69312156       7.56703064
C        0.88193988      -0.88193988       0.88193988
C        2.25209614      -0.65891525       0.91994829
C        3.05847587      -1.48098181       1.70579023
C        2.49973133      -2.54119904       2.44562546
C        1.09518715      -2.72479815       2.45775656
C        0.30456151      -1.89620333       1.64764224
N        0.52393199      -3.73295610       3.28030008
C       -0.81217394      -3.91363706       3.58159011
O       -1.74355389      -3.21597346       3.19211882
C       -1.14024132      -5.02496414       4.50996246
C       -2.26968551      -4.89429084       5.33345392
C       -2.64247819      -5.93160864       6.19219931
C       -1.89103681      -7.10574921       6.22161906
C       -0.77088015      -7.25003549       5.40530806
C       -0.40251621      -6.20788045       4.55514796
F        0.66585397      -6.38359245       3.76425740
C        3.40190437      -3.42731096       3.24795656
O        2.96657408      -4.01352491       4.23695084
C        4.82742416      -3.62316726       2.87879140
C        5.21932403      -3.81603353       1.54805082
C        6.57218191      -3.96447768       1.23630199
C        7.52973856      -3.94167793       2.25074197
C        7.13767500      -3.78457298       3.58050438
C        5.78682327      -3.63139974       3.89710115
H        2.70039184       0.14773627       0.34497262
H        4.12501400      -1.26935592       1.73674824
H       -0.77085013      -2.03048777       1.58672853
H        1.20280419      -4.29126395       3.80567919
H       -2.86583362      -3.98342999       5.30262365
H       -3.52026693      -5.81537124       6.82400332
H       -0.18269411      -8.16285624       5.41108857
H        4.48522613      -3.85817535       0.74723228
H        6.88117349      -4.10283678       0.20280630
H        8.58321247      -4.05890927       2.00614554
H        7.88454242      -3.78308645       4.37099873
H        5.48543309      -3.51286633       4.93559995
C       -2.28235334      -8.18099924       7.09586659
C       -2.61008094      -9.08152114       7.82804889
Br      -3.13998875     -10.53758889       9.01192576
