178
Properties=species:S:1:pos:R:3 pbc="F F F"
C        1.79184390       1.79184390      -1.79184390
C        1.54721715       3.15732472      -1.85612988
C        2.33708993       3.95673661      -2.68113344
C        3.36617802       3.39125466      -3.45883522
C        3.65676004       2.00986526      -3.34082865
C        2.83945527       1.22168317      -2.51698072
N        4.75678330       1.45849290      -4.05162404
C        5.31346837       0.20376718      -3.89552976
O        4.95261100      -0.65471635      -3.09635581
C        6.49523280      -0.10905515      -4.73821970
C        7.45445969      -1.00260752      -4.23591916
C        8.56141750      -1.36032771      -5.00995204
C        8.70570483      -0.83178193      -6.29212063
C        7.75782043       0.05199150      -6.80436354
C        6.65888019       0.40806517      -6.02327890
F        5.75089545       1.24188617      -6.55063428
C        4.16886410       4.27537148      -4.36264837
O        5.31794148       3.96186416      -4.66695626
C        3.60997537       5.53753854      -4.91158097
C        2.30163197       5.60452509      -5.40696339
C        1.80059840       6.81681369      -5.88526157
C        2.60861428       7.95418737      -5.88906888
C        3.92349680       7.88071244      -5.42825520
C        4.42786925       6.67217617      -4.94499080
H        0.74864366       3.60736878      -1.27132783
H        2.14006796       5.02643553      -2.69432675
H        2.99303398       0.15044747      -2.43259679
H        5.26272746       2.12603180      -4.64070014
H        7.33707790      -1.42701952      -3.23987372
H        9.29595798      -2.05397891      -4.60684063
H        7.85285391       0.46318030      -7.80492857
H        1.66506262       4.72353079      -5.43175242
H        0.78132240       6.87525330      -6.25995294
H        2.21703071       8.89753627      -6.26341238
H        4.55640994       8.76488573      -5.44704400
H        5.45479236       6.61870211      -4.59011697
C        9.83866900      -1.21060714      -7.09616269
C       10.78752650      -1.52787326      -7.76954792
Br      12.32174881      -2.04086573      -8.85835489
C       -1.79184390      -1.79184390      -1.79184390
C       -1.76314521      -3.17044550      -1.62708104
C       -2.54970477      -3.97528211      -2.44997309
C       -3.35742616      -3.40556419      -3.45327756
C       -3.43589311      -1.99645100      -3.57510984
C       -2.62416685      -1.20655846      -2.74739385
N       -4.32443507      -1.41999736      -4.52246781
C       -4.68856663      -0.09186414      -4.63233454
O       -4.30825510       0.82572379      -3.91171916
C       -5.67711143       0.24153932      -5.68882524
C       -6.54040216       1.32778615      -5.47515531
C       -7.45809463       1.70577771      -6.45872491
C       -7.50715611       1.00323191      -7.66211933
C       -6.65200955      -0.07348971      -7.88867621
C       -5.74286113      -0.44763407      -6.89972906
F       -4.91660535      -1.47245905      -7.15435150
C       -4.15924091      -4.30407369      -4.34356936
O       -5.18997748      -3.88806222      -4.86872219
C       -3.73997416      -5.70286043      -4.61626029
C       -2.40371176      -6.02830485      -4.88110385
C       -2.04272169      -7.35902287      -5.10092910
C       -3.01452989      -8.35980488      -5.07753577
C       -4.35137407      -8.03266788      -4.84842249
C       -4.71691476      -6.70435929      -4.62376218
H       -1.13557732      -3.62652412      -0.86523882
H       -2.52708564      -5.05003442      -2.28371018
H       -2.61389815      -0.12486458      -2.83731550
H       -4.84486130      -2.09722323      -5.08737487
H       -6.49489787       1.88632614      -4.54136037
H       -8.12020808       2.54973957      -6.27835119
H       -6.67292539      -0.62291384      -8.82512355
H       -1.63668795      -5.25904086      -4.92461702
H       -1.00424938      -7.61686974      -5.29540953
H       -2.73166353      -9.39589067      -5.25042516
H       -5.10932512      -8.81254021      -4.84647433
H       -5.76092518      -6.45349290      -4.44919336
C       -8.44273838       1.40061836      -8.68210454
C       -9.22628852       1.73342952      -9.53634216
Br     -10.49322283       2.27155700     -10.91757214
C       -1.79184390       1.79184390       1.79184390
C       -3.09097432       1.39259439       2.07710304
C       -3.90265177       2.21105078       2.86125743
C       -3.42361442       3.44158911       3.35106437
C       -2.07774654       3.81495037       3.11475704
C       -1.28375311       2.98410287       2.31026319
N       -1.56690681       5.00943074       3.69056270
C       -0.24798545       5.41651450       3.74826535
O        0.72031726       4.79973483       3.31483289
C        0.02313752       6.69545497       4.45207991
C        1.26078722       6.85279850       5.09576005
C        1.57788421       8.05442450       5.73450155
C        0.66065212       9.10450521       5.72219045
C       -0.56909722       8.96288199       5.08219626
C       -0.87992240       7.75849483       4.45180704
F       -2.06055263       7.65871325       3.82415001
C       -4.33687840       4.31219964       4.15780591
O       -3.86918658       5.10196593       4.97560937
C       -5.81230852       4.25029849       3.99648787
C       -6.40796935       4.17397601       2.73117509
C       -7.79697469       4.08476258       2.62093639
C       -8.59104953       4.09275589       3.76806511
C       -8.00104224       4.20391301       5.02750918
C       -6.61258501       4.28899820       5.14345302
H       -3.47976227       0.45126983       1.69630816
H       -4.90767645       1.86331214       3.08984165
H       -0.26186076       3.25267118       2.06154630
H       -2.24760239       5.54603520       4.23582182
H        1.98416335       6.03871165       5.09538379
H        2.54097967       8.16105291       6.22874646
H       -1.28842195       9.77599452       5.05654632
H       -5.80627763       4.18829252       1.82577567
H       -8.26229586       4.01368212       1.64055067
H       -9.67318262       4.02459458       3.68020215
H       -8.62308798       4.22596491       5.91928677
H       -6.15716184       4.37922034       6.12722925
C        0.99195522      10.34821477       6.36796501
C        1.26942157      11.38982152       6.90880121
Br       1.71806118      13.07401155       7.78328760
C        1.79184390      -1.79184390       1.79184390
C        3.15209224      -1.52694012       1.88163939
C        3.95963436      -2.34831937       2.66700624
C        3.41270223      -3.44929224       3.35427343
C        2.01522691      -3.67753765       3.31468938
C        1.22397725      -2.84834534       2.50579658
N        1.45147916      -4.72960345       4.08581764
C        0.11312689      -4.96221660       4.33742181
O       -0.82776242      -4.28201801       3.93999488
C       -0.20766214      -6.11310823       5.21895126
C       -1.36626257      -6.04521350       6.00882039
C       -1.73194586      -7.12131249       6.82167520
C       -0.94384793      -8.27142353       6.83846793
C        0.20569219      -8.35344563       6.05503765
C        0.56652162      -7.27293506       5.25076758
F        1.66455140      -7.38881951       4.49004499
C        4.31750947      -4.33215844       4.15721604
O        3.87049238      -4.96385501       5.11241450
C        5.75963402      -4.47064597       3.82881490
C        6.19953499      -4.60743092       2.50615455
C        7.56570696      -4.70273048       2.23423622
C        8.48943065      -4.68280397       3.27963591
C        8.05056561      -4.58171655       4.60018227
C        6.68608980      -4.48178773       4.87715870
H        3.59175894      -0.68815195       1.34742937
H        5.01717433      -2.10417867       2.73947724
H        0.15599362      -3.01452659       2.40555803
H        2.13126845      -5.28302068       4.61517027
H       -1.99058064      -5.15315013       5.98736261
H       -2.63261457      -7.05361292       7.42782135
H        0.82291305      -9.24690031       6.05114942
H        5.49291178      -4.64658930       1.68084475
H        7.91159956      -4.79740036       1.20752872
H        9.55338390      -4.75858977       3.06600568
H        8.77160019      -4.58243001       5.41430947
H        6.34828024      -4.40684597       5.90848523
C       -1.32728696      -9.38650812       7.66500339
C       -1.64841714     -10.32039147       8.35722684
Br      -2.16765749     -11.83040185       9.47649361
C       -0.00445707       0.01189536      -1.78238275
H       -0.66409135       0.67374010      -2.43557963
H        0.65740317      -0.63156657      -2.45157240
C       -0.90989263      -0.90692880      -0.91072765
C        0.90977584       0.90977584      -0.90977584
C       -0.00465871       1.77757030       0.00794375
H       -0.66225468       2.44313916      -0.64384735
H        0.64322798       2.43503045       0.67728295
C       -1.78241447       0.00034974      -0.00472694
H       -2.45427497      -0.65498947       0.64260836
H       -2.43311707       0.67328779      -0.65473579
C       -0.91132561       0.90220522       0.91563759
C       -0.01476271      -0.02253852       1.78660255
H       -0.67934791      -0.69751639       2.42135241
H        0.63392994       0.61504881       2.47327442
C        0.01484550      -1.77751727      -0.01636693
H        0.67870853      -2.42144646      -0.68295456
H       -0.62264859      -2.45592969       0.64226336
C        1.78714474       0.01002794       0.00389507
H        2.44202412       0.67113390       0.66197326
H        2.45385902      -0.65136977      -0.64189061
C        0.91606151      -0.90478549       0.90901405
