130
Properties=species:S:1:pos:R:3 pbc="F F F"
C        1.79219072       1.79219072      -1.79219072
C        2.94222934       1.23961677      -2.39036428
C        3.76622767       2.02602608      -3.20288945
C        3.40267770       3.34774550      -3.38568366
C        2.27849023       3.88075094      -2.79813916
C        1.44390305       3.12963969      -1.99094460
C        2.19219042       5.28092315      -3.19712488
O        1.26784633       5.97499085      -2.81399645
N        3.27823199       5.54778253      -4.01066398
C        3.56555903       6.81682602      -4.61310050
C        4.67750753       7.00140602      -5.44843650
C        4.95568307       8.24452357      -6.03876891
Cl       6.36141835       8.36977835      -7.04573880
C        4.11703124       9.35241914      -5.85229079
N        4.47839548      10.62746562      -6.33359320
C        3.03511819       9.18336895      -4.97977691
Br       1.87158360      10.63739187      -4.57978454
C        2.75452973       7.94006809      -4.38820014
C        4.04145750       4.40473010      -4.16217337
O        5.06238382       4.18043640      -4.78720654
H        3.19812261       0.19454301      -2.22426518
H        4.65617311       1.61781233      -3.67251150
H        0.56161059       3.57124453      -1.53852713
H        5.36853098       6.19245301      -5.66463845
H        3.69136091      11.26464613      -6.42685816
H        5.06990319      10.59145572      -7.16112304
H        1.88669744       7.88971408      -3.73745557
C       -1.79219072      -1.79219072      -1.79219072
C       -3.19133723      -1.62952823      -1.75134493
C       -4.02113350      -2.42434507      -2.54966463
C       -3.41105533      -3.36009636      -3.36495517
C       -2.04419522      -3.51373307      -3.39945204
C       -1.19753570      -2.74341038      -2.62354125
C       -1.74187111      -4.57250955      -4.35585780
O       -0.58772624      -4.89124854      -4.57785884
N       -2.94483489      -5.02893981      -4.86290381
C       -3.08722923      -6.07403601      -5.83422031
C       -4.34492635      -6.46422027      -6.31820343
C       -4.48166662      -7.48653039      -7.27077853
Cl      -6.08158133      -7.90042911      -7.79492507
C       -3.36713619      -8.14265260      -7.81195237
N       -3.52083308      -9.25822160      -8.66039963
C       -2.11534969      -7.78897353      -7.29394083
Br      -0.53320226      -8.66752656      -7.88803119
C       -1.97605751      -6.76584358      -6.34089687
C       -3.98955395      -4.32069943      -4.29810759
O       -5.19590802      -4.37939118      -4.45472757
H       -3.63744293      -0.88247412      -1.09701375
H       -5.10119919      -2.31329363      -2.53200411
H       -0.12186495      -2.88161722      -2.66790008
H       -5.26018140      -5.99556441      -5.96987664
H       -2.70121257      -9.45101193      -9.23064069
H       -4.38865355      -9.24182508      -9.19200333
H       -0.96851689      -6.54180222      -6.00354799
C       -1.79219072       1.79219072       1.79219072
C       -1.31040659       3.04728488       2.21451892
C       -2.09875535       3.87416145       3.02222640
C       -3.35045932       3.40670514       3.37894240
C       -3.81429819       2.17987110       2.96321104
C       -3.05989417       1.34039732       2.16419585
C       -5.15451047       2.00458785       3.51114014
O       -5.79011050       0.99347488       3.27324824
N       -5.45172818       3.13568266       4.24926766
C       -6.67831539       3.36000252       4.95716763
C       -6.91416014       4.54803039       5.66515953
C       -8.11683573       4.76618810       6.35595171
Cl      -8.30395566       6.26373427       7.20924557
C       -9.15505890       3.82413904       6.34254322
N      -10.29871593       3.99051494       7.15022343
C       -8.90221283       2.61786883       5.67818239
Br     -10.20241322       1.22605411       5.66029267
C       -7.69949756       2.39751136       4.98578904
C       -4.39119992       4.02137805       4.19578299
O       -4.22276988       5.12520875       4.68204814
H       -0.31925797       3.38320569       1.91446714
H       -1.74475225       4.84455812       3.35718657
H       -3.44685916       0.37701665       1.84750644
H       -6.17359510       5.34054492       5.71148243
H      -11.09859783       3.44493716       6.83933021
H      -10.52170982       4.96639688       7.33437526
H       -7.58977626       1.44157511       4.48251573
C        1.79219072      -1.79219072       1.79219072
C        1.51952406      -3.17187848       1.88080786
C        2.31263166      -4.00137240       2.68113914
C        3.35736838      -3.41057277       3.36816570
C        3.61756824      -2.06256273       3.27724936
C        2.85297873      -1.21691736       2.49459125
C        4.77590534      -1.77785000       4.11648312
O        5.21605813      -0.64518214       4.19559335
N        5.17233977      -2.97020105       4.69413769
C        6.27773252      -3.12326131       5.59449171
C        6.63227297      -4.37465337       6.12042372
C        7.71631127      -4.52231279       7.00035148
Cl       8.06395677      -6.11050790       7.60247083
C        8.51970510      -3.43383339       7.36820267
N        9.51589912      -3.56641391       8.35714128
C        8.13744235      -2.17699070       6.88383100
Br       9.09917349      -0.60955672       7.38002979
C        7.05317971      -2.02688469       6.00273356
C        4.34717602      -3.99423742       4.26694752
O        4.33322943      -5.18774242       4.50905492
H        0.68809978      -3.60305986       1.32577117
H        2.11815982      -5.06668177       2.76165535
H        3.07749310      -0.15651364       2.43737551
H        6.07821006      -5.27480067       5.87261172
H       10.22459272      -2.83805206       8.32022041
H        9.90385121      -4.50576003       8.41287072
H        6.83347824      -1.02011176       5.66027711
C       -0.00445707       0.01189536      -1.78238275
H       -0.66409135       0.67374010      -2.43557963
H        0.65740317      -0.63156657      -2.45157240
C       -0.90989263      -0.90692880      -0.91072765
C        0.90977584       0.90977584      -0.90977584
C       -0.00465871       1.77757030       0.00794375
H       -0.66225468       2.44313916      -0.64384735
H        0.64322798       2.43503045       0.67728295
C       -1.78241447       0.00034974      -0.00472694
H       -2.45427497      -0.65498947       0.64260836
H       -2.43311707       0.67328779      -0.65473579
C       -0.91132561       0.90220522       0.91563759
C       -0.01476271      -0.02253852       1.78660255
H       -0.67934791      -0.69751639       2.42135241
H        0.63392994       0.61504881       2.47327442
C        0.01484550      -1.77751727      -0.01636693
H        0.67870853      -2.42144646      -0.68295456
H       -0.62264859      -2.45592969       0.64226336
C        1.78714474       0.01002794       0.00389507
H        2.44202412       0.67113390       0.66197326
H        2.45385902      -0.65136977      -0.64189061
C        0.91606151      -0.90478549       0.90901405
