190
Properties=species:S:1:pos:R:3 pbc="F F F"
C        1.79132422       1.79132422      -1.79132422
C        3.14260379       1.94419962      -1.48874915
C        3.94317004       2.76702366      -2.28622128
C        3.39663135       3.43660160      -3.39021102
C        2.03274278       3.27592558      -3.68226466
C        1.23334218       2.45078122      -2.88480128
C        4.27007283       4.38131488      -4.15172906
O        5.36235602       4.71082539      -3.70202834
N        3.72921522       4.88565205      -5.32145968
N        4.47898363       5.83396649      -6.05145394
C        4.64228762       7.14964504      -5.60315450
N        5.35557965       8.01451823      -6.26216988
C        5.98512723       7.61222134      -7.44936363
C        6.79786132       8.53285703      -8.11509753
C        7.44459233       8.18380884      -9.30380276
C        7.27802220       6.90755318      -9.84146613
C        6.46861434       5.97867751      -9.18779653
C        5.83201807       6.33763984      -7.99378227
C        4.98116760       5.38066317      -7.26764298
O        4.71229323       4.27753941      -7.74351010
C        4.01306096       7.59730579      -4.32239863
C        4.77755300       8.40098156      -3.46439357
C        4.26479540       8.80372104      -2.22894015
C        2.98567966       8.40311943      -1.85007990
C        2.19943157       7.63846654      -2.71098938
C        2.70347381       7.25802537      -3.95811582
H        3.58033333       1.44181842      -0.62964803
H        4.99328816       2.89985850      -2.02954826
H        1.55668163       3.80597337      -4.50183403
H        0.17563214       2.34312176      -3.11405293
H        3.20190597       4.24820391      -5.91400828
H        6.92885697       9.52893366      -7.69895434
H        8.07857819       8.91000089      -9.80740155
H        7.78178106       6.63699521     -10.76658868
H        6.34078508       4.98132345      -9.60235458
H        5.78500814       8.69897783      -3.74845113
H        4.87634912       9.41444389      -1.57008570
H        1.19748361       7.33349365      -2.41918597
H        2.06690447       6.68918310      -4.62842909
C        2.47024430       8.78290135      -0.56023802
C        2.03856718       9.10096870       0.52000456
Br       1.34058180       9.61525671       2.26666544
C       -1.79132422      -1.79132422      -1.79132422
C       -1.27376706      -2.96338075      -2.33840476
C       -2.07703679      -3.75871966      -3.16065853
C       -3.40066840      -3.38702553      -3.43575004
C       -3.90880949      -2.20192815      -2.88019537
C       -3.10472812      -1.40815820      -2.05603837
C       -4.18619644      -4.21791289      -4.39900744
O       -3.62578091      -5.07229706      -5.07713178
N       -5.52911038      -3.90122739      -4.50598917
N       -6.31040325      -4.60634684      -5.44765397
C       -6.18636454      -4.38477915      -6.82394347
N       -6.88663551      -5.05406898      -7.69156327
C       -7.78294944      -6.03076703      -7.23299573
C       -8.48383504      -6.78475654      -8.17722430
C       -9.39162350      -7.76747077      -7.77310967
C       -9.61088436      -8.00068883      -6.41546832
C       -8.91866975      -7.25454627      -5.46187237
C       -8.00634080      -6.27810271      -5.87899668
C       -7.24668884      -5.48000196      -4.90278295
O       -7.47169172      -5.56616837      -3.69548265
C       -5.21289817      -3.37565041      -7.34421681
C       -4.45141514      -3.72173718      -8.46977581
C       -3.48620934      -2.84329429      -8.96795295
C       -3.28160734      -1.61657406      -8.34069760
C       -4.06005885      -1.24283556      -7.24599307
C       -5.04369755      -2.11152976      -6.76438770
H       -0.24598892      -3.26065882      -2.14515204
H       -1.65799504      -4.66130765      -3.60339224
H       -4.91382112      -1.85283647      -3.09783145
H       -3.50569889      -0.48641748      -1.64069046
H       -6.03401148      -3.67929607      -3.65081061
H       -8.31581045      -6.60455943      -9.23637510
H       -9.92551539      -8.35005009      -8.52041516
H      -10.31757032      -8.76568892      -6.10210570
H       -9.08423830      -7.43759470      -4.40263012
H       -4.59455436      -4.68779523      -8.95008752
H       -2.89495707      -3.13353063      -9.83239100
H       -3.90672214      -0.28142366      -6.76201743
H       -5.66139012      -1.79215024      -5.93097630
C       -2.25964140      -0.72641716      -8.82732510
C       -1.40374493       0.01908923      -9.23487563
Br      -0.01983272       1.22451003      -9.89385037
C       -1.79132422       1.79132422       1.79132422
C       -2.21816378       1.32471086       3.03267791
C       -3.04086226       2.12611026       3.82944245
C       -3.43650293       3.39728608       3.38965496
C       -3.00143109       3.85415464       2.13534728
C       -2.17667290       3.05219165       1.34006013
C       -4.39578793       4.17403672       4.23329212
O       -4.97149613       3.63267177       5.17104185
N       -4.62182402       5.47984965       3.83465328
N       -5.56786969       6.24467255       4.55186182
C       -6.94330480       6.01146107       4.44032129
N       -7.81219667       6.69808704       5.12198405
C       -7.35492377       7.69242871       5.99935971
C       -8.29432568       8.38063932       6.77085088
C       -7.89166245       9.38313362       7.65740786
C       -6.54094222       9.71067415       7.77542513
C       -5.59231902       9.03230133       7.01046803
C       -6.00716896       8.02486211       6.13140912
C       -5.03465139       7.27713347       5.31768889
O       -3.84394350       7.58942481       5.29997444
C       -7.45854848       4.93378702       3.54042989
C       -8.49935233       4.12481241       4.01876339
C       -8.98432398       3.06640218       3.24673043
C       -8.42870246       2.81592317       1.99425337
C       -7.42171883       3.63766398       1.48950469
C       -6.95524514       4.71257614       2.25179372
H       -1.93061575       0.33691205       3.38427199
H       -3.38939771       1.74494412       4.78835309
H       -3.31510293       4.81385906       1.73552704
H       -1.85536995       3.41211588       0.36532100
H       -3.82287278       6.02419643       3.51704895
H       -9.34817949       8.12825373       6.68031175
H       -8.63459106       9.90606388       8.25532570
H       -6.22870425      10.49100123       8.46565946
H       -4.53800095       9.28245754       7.10400463
H       -8.92200637       4.30509929       5.00533145
H       -9.78153781       2.44049239       3.63884849
H       -6.99435858       3.44781894       0.50798571
H       -6.19281585       5.36055605       1.83114476
C       -8.89883478       1.70096645       1.21358244
C       -9.29257060       0.76719019       0.55977053
Br      -9.92920812      -0.74264703      -0.49738802
C        1.79132422      -1.79132422       1.79132422
C        3.05740289      -2.16885758       1.34929209
C        3.85479461      -2.99167011       2.14995026
C        3.39080902      -3.43668724       3.39594771
C        2.11182330      -3.05101159       3.82809812
C        1.31586348      -2.22608257       3.02697863
C        4.23973244      -4.39391847       4.16946587
O        5.20894208      -4.92664113       3.63962654
N        3.81091283      -4.66931598       5.45609814
N        4.53346460      -5.61656453       6.21437493
C        4.46890060      -6.98720054       5.93898602
N        5.15590159      -7.85608174       6.62028443
C        5.99089243      -7.40334339       7.65247637
C        6.76966549      -8.34016821       8.33598218
C        7.61519637      -7.94197161       9.37503596
C        7.68427298      -6.59860633       9.74416220
C        6.91147897      -5.65267002       9.07093939
C        6.07393715      -6.06268528       8.02681775
C        5.25369332      -5.09223124       7.28354918
O        5.19226766      -3.91215799       7.62891708
C        3.61547869      -7.49606280       4.82122389
C        4.14687483      -8.49872451       3.99732878
C        3.41977124      -8.97426836       2.90341699
C        2.15919848      -8.44739049       2.63229003
C        1.60203594      -7.47964550       3.46720605
C        2.31947589      -7.02334419       4.57679493
H        3.42837472      -1.84264381       0.38078126
H        4.83394433      -3.30149584       1.78725475
H        1.69422879      -3.40387642       4.76638382
H        0.32229938      -1.94329505       3.36721240
H        3.45471403      -3.89599103       6.01341309
H        6.71721933      -9.38833247       8.05119317
H        8.21949012      -8.68258490       9.89390561
H        8.34260787      -6.28983982      10.55291725
H        6.96696990      -4.60389142       9.35360179
H        5.13986443      -8.89825195       4.19432073
H        3.85268993      -9.74135174       2.26683704
H        0.61422526      -7.07499250       3.26094548
H        1.85844053      -6.29247350       5.23360263
C        1.42463759      -8.90669811       1.48204797
C        0.80944285      -9.29136824       0.51872024
Br      -0.18527502      -9.91334731      -1.03889923
C       -0.00445707       0.01189536      -1.78238275
H       -0.66409135       0.67374010      -2.43557963
H        0.65740317      -0.63156657      -2.45157240
C       -0.90989263      -0.90692880      -0.91072765
C        0.90977584       0.90977584      -0.90977584
C       -0.00465871       1.77757030       0.00794375
H       -0.66225468       2.44313916      -0.64384735
H        0.64322798       2.43503045       0.67728295
C       -1.78241447       0.00034974      -0.00472694
H       -2.45427497      -0.65498947       0.64260836
H       -2.43311707       0.67328779      -0.65473579
C       -0.91132561       0.90220522       0.91563759
C       -0.01476271      -0.02253852       1.78660255
H       -0.67934791      -0.69751639       2.42135241
H        0.63392994       0.61504881       2.47327442
C        0.01484550      -1.77751727      -0.01636693
H        0.67870853      -2.42144646      -0.68295456
H       -0.62264859      -2.45592969       0.64226336
C        1.78714474       0.01002794       0.00389507
H        2.44202412       0.67113390       0.66197326
H        2.45385902      -0.65136977      -0.64189061
C        0.91606151      -0.90478549       0.90901405
