161
Properties=species:S:1:pos:R:3 pbc="F F F"
C        0.00000000       0.00000000       0.00000000
C        0.88142020       0.88142020      -0.88142020
C        2.23269977       1.03429559      -0.57884513
C        3.03326602       1.85711963      -1.37631725
C        2.48672732       2.52669757      -2.48030700
C        1.12283875       2.36602155      -2.77236063
C        0.32343816       1.54087720      -1.97489725
C        3.36016881       3.47141086      -3.24182504
O        4.45245200       3.80092137      -2.79212432
N        2.81931120       3.97574802      -4.41155566
N        3.56907960       4.92406247      -5.14154992
C        3.73238359       6.23974101      -4.69325048
N        4.44567563       7.10461420      -5.35226586
C        5.07522320       6.70231731      -6.53945960
C        5.88795730       7.62295300      -7.20519351
C        6.53468831       7.27390482      -8.39389874
C        6.36811817       5.99764915      -8.93156211
C        5.55871032       5.06877349      -8.27789251
C        4.92211405       5.42773582      -7.08387824
C        4.07126357       4.47075915      -6.35773895
O        3.80238920       3.36763539      -6.83360607
C        3.10315694       6.68740177      -3.41249461
C        3.86764898       7.49107753      -2.55448954
C        3.35489137       7.89381702      -1.31903613
C        2.07577564       7.49321541      -0.94017588
Br       1.39927756       7.99167119       0.75271447
C        1.28952755       6.72856252      -1.80108535
C        1.79356979       6.34812135      -3.04821180
H        2.67042931       0.53191440       0.28025599
H        4.08338414       1.98995448      -1.11964423
H        0.64677761       2.89606935      -3.59193000
H       -0.73427188       1.43321774      -2.20414890
H        2.29200195       3.33829988      -5.00410425
H        6.01895295       8.61902964      -6.78905031
H        7.16867416       8.00009687      -8.89749753
H        6.87187703       5.72709119      -9.85668465
H        5.43088105       4.07141943      -8.69245056
H        4.87510412       7.78907381      -2.83854711
H        3.96644509       8.50453986      -0.66018167
H        0.28757958       6.42358963      -1.50928195
H        1.15700045       5.77927907      -3.71852506
C       -0.88142020      -0.88142020      -0.88142020
C       -2.17963793      -1.18724836      -0.47895419
C       -2.97798582      -2.01015608      -1.27856100
C       -2.48266175      -2.52692257      -2.48414758
C       -1.17161694      -2.21307347      -2.87653053
C       -0.37462659      -1.38797432      -2.07661170
C       -3.33933294      -3.48072756      -3.25334420
O       -4.35147543      -3.94991446      -2.74410779
N       -2.87016488      -3.82847100      -4.50797900
N       -3.60088644      -4.77685494      -5.25695060
C       -3.60656217      -6.13590997      -4.92290295
N       -4.30160014      -7.00422505      -5.59673050
C       -5.07323793      -6.56222256      -6.68153962
C       -5.86270965      -7.49468117      -7.35871298
C       -6.64692639      -7.10698486      -8.44858061
C       -6.64306966      -5.77898796      -8.87527182
C       -5.85875259      -4.83762917      -8.20899455
C       -5.08322625      -5.23657725      -7.11392462
C       -4.25337251      -4.26969085      -6.37669831
O       -4.12722641      -3.10904585      -6.76735840
C       -2.82245313      -6.63102440      -3.74957577
C       -3.42981063      -7.57471283      -2.90869259
C       -2.76938632      -8.03239528      -1.76596292
C       -1.49959112      -7.54666649      -1.46290932
Br      -0.62515462      -8.12332401       0.11024435
C       -0.86755734      -6.63936566      -2.31225242
C       -1.51851575      -6.20196174      -3.46942544
H       -2.57579582      -0.80480483       0.45851294
H       -3.98361401      -2.26360146      -0.94576739
H       -0.73130526      -2.62274198      -3.78072972
H        0.64330670      -1.16114866      -2.38525281
H       -2.45849804      -3.09507195      -5.08083610
H       -5.86703481      -8.53093278      -7.02906531
H       -7.26058167      -7.84369261      -8.96199428
H       -7.25373018      -5.47838373      -9.72353896
H       -5.85752794      -3.80054785      -8.53667526
H       -4.43008174      -7.94114198      -3.13150132
H       -3.26062994      -8.75300785      -1.11752884
H        0.12738265      -6.26720937      -2.08062445
H       -0.99992665      -5.51952206      -4.13535588
C       -0.88142020       0.88142020       0.88142020
C       -1.14045623       0.50723814       2.19814612
C       -1.96338045       1.30617604       2.99714641
C       -2.52693043       2.48294269       2.48385877
C       -2.25994653       2.84690890       1.15436551
C       -1.43478689       2.04775677       0.35666895
C       -3.47821591       3.24956415       3.34562464
O       -3.90528165       2.75625208       4.38396395
N       -3.87353138       4.48066985       2.85241364
N       -4.82225992       5.22370785       3.58872422
C       -6.17078721       4.85311111       3.64147677
N       -7.03837744       5.52224221       4.34193604
C       -6.60605402       6.63982018       5.07112592
C       -7.53526422       7.31319020       5.86764939
C       -7.15700497       8.43469754       6.61078935
C       -5.84205282       8.89707350       6.55820312
C       -4.90411366       8.23497745       5.76628521
C       -5.29323430       7.10820872       5.03228509
C       -4.32904184       6.37463878       4.19608105
O       -3.18363277       6.79304068       4.02695722
C       -6.65404657       3.64528932       2.90371743
C       -7.55698952       2.79636103       3.55986550
C       -8.00033699       1.62358943       2.94381810
C       -7.54103949       1.29847610       1.66965134
Br      -8.09705826      -0.31361101       0.85478704
C       -6.67536407       2.15417835       0.98963300
C       -6.25294095       3.34056614       1.59639583
H       -0.72132002      -0.40803871       2.60880641
H       -2.17997894       0.99485785       4.01814606
H       -2.70655774       3.72696825       0.70125096
H       -1.24444727       2.33387283      -0.67522534
H       -3.16790221       5.06152788       2.40497599
H       -8.56139346       6.95573156       5.90990788
H       -7.89081656       8.94484086       7.23061115
H       -5.54878495       9.76994334       7.13692458
H       -3.87701601       8.59057987       5.72715516
H       -7.90216489       3.03699984       4.56356031
H       -8.68891220       0.96978447       3.47246995
H       -6.32407437       1.90503181      -0.00865501
H       -5.60374245       4.01005145       1.04101069
C        0.88142020      -0.88142020       0.88142020
C        1.32761858      -0.40573957       2.11248233
C        2.15026148      -1.20743407       2.90900736
C        2.52650686      -2.48791522       2.47930982
C        2.07203941      -2.95390447       1.23527706
C        1.24736027      -2.15160632       0.44024603
C        3.48653101      -3.26599303       3.32088065
O        4.07895999      -2.72069035       4.24584734
N        3.69327231      -4.57870920       2.93463337
N        4.63875180      -5.34613510       3.64980509
C        6.01536737      -5.12989326       3.52011445
N        6.88417923      -5.81865332       4.19972314
C        6.42575932      -6.79776273       5.09347806
C        7.36607847      -7.48789852       5.86212682
C        6.96227400      -8.47567865       6.76453921
C        5.60938060      -8.78644619       6.90150265
C        4.65980493      -8.10596813       6.13960325
C        5.07593578      -7.11329814       5.24449419
C        4.10269470      -6.36375046       4.43331652
O        2.90841739      -6.66262529       4.43258798
C        6.53243330      -4.06837697       2.60224304
C        7.58767683      -3.26598094       3.05955828
C        8.07571525      -2.22193947       2.27008979
C        7.50870851      -1.97927698       1.02118144
Br       8.13048227      -0.53469371      -0.02694169
C        6.48683577      -2.79512095       0.53721870
C        6.01699580      -3.85598298       1.31692415
H        1.05525185       0.58917435       2.45601022
H        2.51398223      -0.81948090       3.85951972
H        2.37029345      -3.92156912       0.84291438
H        0.91092750      -2.51880924      -0.52664198
H        2.88466607      -5.11745701       2.63228300
H        8.42160969      -7.24858172       5.75684149
H        7.70602931      -9.00027191       7.35996734
H        5.29625587      -9.55533183       7.60406518
H        3.60386882      -8.34301675       6.24786547
H        8.01949266      -3.43994191       4.04329046
H        8.88435337      -1.60077932       2.64603394
H        6.05047965      -2.61149247      -0.44152097
H        5.24256366      -4.49992865       0.91231227
