177
Properties=species:S:1:pos:R:3 pbc="F F F"
C        0.00000000       0.00000000       0.00000000
C        0.88145061       0.88145061      -0.88145061
C        1.90470377       0.30585265      -1.63176805
C        2.71263883       1.11214852      -2.44164071
C        2.47883794       2.48954488      -2.52529779
C        1.46175178       3.05885669      -1.74265711
C        0.66175597       2.25593202      -0.92369249
C        3.32056129       3.40747774      -3.35794713
N        3.60468353       4.57419111      -2.86151329
C        4.38798096       5.46517998      -3.60705351
C        4.63488694       6.73710567      -3.08528463
C        5.41018755       7.66122424      -3.79224320
C        5.95166762       7.31663605      -5.03032596
C        5.71303012       6.05207411      -5.56359304
C        4.92836264       5.13779064      -4.84894763
C        4.61281334       3.81531272      -5.40603457
O        5.06308832       3.46730620      -6.49785188
N        3.76105222       3.01813166      -4.63043685
N        3.31453829       1.80428430      -5.24490626
C        2.08930060       2.04669868      -6.02374099
C        1.61582484       0.78448172      -6.70186552
C        2.18374672       0.39875924      -7.92879266
C        1.75535398      -0.76512657      -8.56744953
C        0.76721118      -1.56412567      -7.99567954
C        0.20474702      -1.19887058      -6.77207318
C        0.63161033      -0.03388951      -6.13383661
O        0.07735537       0.32966482      -4.93946956
H        2.08761482      -0.76478562      -1.59461442
H        3.52211993       0.64768691      -2.99869113
H        1.28937792       4.13252792      -1.76590715
H       -0.12170255       2.71447450      -0.32653770
H        4.21478067       7.00887389      -2.11952024
H        5.58875211       8.64873627      -3.37416538
H        6.55465855       8.03552740      -5.58021739
H        6.12579524       5.78260588      -6.53321091
H        4.04869730       1.53992458      -5.91101439
H        2.26658791       2.81120848      -6.79210745
H        1.29776771       2.44837873      -5.38060928
H        2.95693610       1.01479748      -8.38402221
H        0.42935323      -2.46889564      -8.49442531
H       -0.56537380      -1.82875051      -6.33658839
H       -0.51962583      -0.37293512      -4.63604068
C        2.33603091      -1.14266280      -9.82993941
C        2.82234785      -1.45884939     -10.88727468
Br       3.60868121      -1.97009637     -12.59689639
C       -0.88145061      -0.88145061      -0.88145061
C       -0.31823062      -1.95338409      -1.57070976
C       -1.12507537      -2.76347778      -2.37787491
C       -2.50025431      -2.52095618      -2.47247012
C       -3.04849142      -1.42098705      -1.79378712
C       -2.24112354      -0.60351692      -0.99674001
C       -3.41225724      -3.33935817      -3.33437076
N       -4.34696267      -2.71103556      -3.98238970
C       -5.22354258      -3.43766519      -4.79900668
C       -6.25935144      -2.75596684      -5.44195896
C       -7.15964942      -3.43758545      -6.26642011
C       -7.02693917      -4.81234271      -6.45934775
C       -5.99931937      -5.50555536      -5.82382254
C       -5.10832145      -4.81246568      -4.99431379
C       -4.04621204      -5.52089820      -4.26705039
O       -3.89246621      -6.73516497      -4.40061521
N       -3.26477226      -4.73104466      -3.41380380
N       -2.34509201      -5.44143620      -2.57720064
C       -3.00015957      -5.83908810      -1.32049259
C       -2.05507088      -6.61281985      -0.43428136
C       -1.87544760      -7.99129226      -0.64455875
C       -1.00563495      -8.71943550       0.16739351
C       -0.29804561      -8.09079062       1.19007118
C       -0.45795562      -6.72074174       1.40074774
C       -1.32920633      -5.99241723       0.59006612
O       -1.49298657      -4.65248727       0.79898409
H        0.74417179      -2.16868527      -1.49293014
H       -0.66202300      -3.57850116      -2.92797382
H       -4.10838470      -1.19442708      -1.88500121
H       -2.68383265       0.24221136      -0.47768836
H       -6.36526045      -1.68356658      -5.29434778
H       -7.96323502      -2.89280093      -6.75561782
H       -7.72730929      -5.34249305      -7.10060099
H       -5.89794468      -6.57940167      -5.96426568
H       -2.11322447      -6.30338101      -3.08303080
H       -3.87881045      -6.46527139      -1.52582200
H       -3.37923276      -4.95864655      -0.78887641
H       -2.42230469      -8.49240478      -1.44104632
H        0.37663830      -8.65781906       1.82629786
H        0.09788180      -6.24181659       2.20147070
H       -0.86654685      -4.35503033       1.47809747
C       -0.83993693     -10.13323343      -0.05013717
C       -0.70116484     -11.31728919      -0.23231911
Br      -0.47678211     -13.23180721      -0.52689190
C       -0.88145061       0.88145061       0.88145061
C       -1.84566646       1.69986410       0.29679391
C       -2.65571405       2.50730007       1.10341393
C       -2.52297258       2.47439109       2.49631694
C       -1.52882693       1.66528989       3.06914877
C       -0.71062358       0.86732658       2.26343031
C       -3.34586817       3.32875714       3.41136086
N       -2.74998693       3.84735532       4.44304568
C       -3.48224295       4.65176880       5.32620270
C       -2.84222091       5.15301900       6.46203733
C       -3.53114551       5.95960719       7.37290229
C       -4.87080835       6.27703328       7.15078801
C       -5.52238193       5.78349446       6.02282088
C       -4.82323357       4.97020780       5.12165954
C       -5.49413555       4.38948147       3.95054361
O       -6.67718980       4.63608118       3.71497542
N       -4.70989880       3.53599838       3.16372355
N       -5.40318011       2.83578130       2.12476743
C       -5.95059134       1.56997023       2.63917870
C       -6.70850598       0.82775868       1.56590742
C       -8.04657504       1.16636655       1.29835704
C       -8.75977151       0.48826770       0.30963773
C       -8.15501425      -0.52571487      -0.43053434
C       -6.82368852      -0.86248483      -0.18325407
C       -6.11053118      -0.18577491       0.80680117
O       -4.80931601      -0.51856749       1.05574124
H       -1.97633739       1.72296637      -0.78186014
H       -3.38389512       3.15812529       0.62647757
H       -1.38571963       1.65478268       4.14731068
H        0.05217489       0.24634165       2.72514289
H       -1.79717359       4.90808719       6.63791402
H       -3.01954209       6.33759736       8.25451431
H       -5.40665229       6.90437479       7.85937626
H       -6.56980190       6.02107545       5.85073467
H       -6.20082419       3.42866316       1.87014892
H       -6.63057910       1.75850142       3.48082333
H       -5.14893453       0.93851587       3.03930533
H       -8.52865242       1.95737658       1.86972679
H       -8.71093187      -1.05788642      -1.19816255
H       -6.36322686      -1.65514316      -0.76561961
H       -4.51378426      -1.16970051       0.39939598
C      -10.13354269       0.83597022       0.05379462
C      -11.28407605       1.12717108      -0.16047399
Br     -13.14439120       1.59801824      -0.50692821
C        0.88145061      -0.88145061       0.88145061
C        2.26796108      -0.81117912       0.76318426
C        3.07757166      -1.61726683       1.57158957
C        2.50263401      -2.47154309       2.51950351
C        1.10374983      -2.55137430       2.60814145
C        0.29356599      -1.75542417       1.79239031
C        3.31406494      -3.37262223       3.39929900
N        2.85041851      -4.56537856       3.62459086
C        3.57625656      -5.44071804       4.44323985
C        3.03572819      -6.69774311       4.72380595
C        3.72212616      -7.60553045       5.53599838
C        4.96317734      -7.26330007       6.07215222
C        5.51416850      -6.01281633       5.80171245
C        4.81310197      -5.10931852       4.99268042
C        5.34015622      -3.76298572       4.73101869
O        6.42889363      -3.41253283       5.18681994
N        4.51527765      -2.92666101       3.96768207
N        4.94358043      -1.56494197       3.85520644
C        4.41538189      -0.76918321       4.97517517
C        4.87698657       0.66501491       4.89020042
C        6.14451727       1.01848609       5.38526744
C        6.58407789       2.34051353       5.31411258
C        5.77867447       3.32508706       4.74517764
C        4.52383661       2.98463906       4.23875207
C        4.08303272       1.66283774       4.31136245
O        2.85200838       1.32840019       3.82288156
H        2.73210746      -0.13872215       0.04661402
H        4.15594695      -1.56689221       1.44565881
H        0.63823546      -3.23682122       3.31275631
H       -0.78718566      -1.82984692       1.87664839
H        2.06835733      -6.96823533       4.30658214
H        3.28512108      -8.57800861       5.74852408
H        5.49700419      -7.96943137       6.70396778
H        6.47761924      -5.73844956       6.22554324
H        5.96478079      -1.58263109       3.95222439
H        4.74769939      -1.18734046       5.93486399
H        3.32026086      -0.81184931       4.99464555
H        6.78232290       0.25742813       5.83086103
H        6.11813190       4.35637933       4.69313033
H        3.90443794       3.76060131       3.79862745
H        2.46212925       2.09966734       3.38101780
C        7.87926326       2.69207981       5.83612408
C        8.96398101       2.98651658       6.27330871
Br      10.71787786       3.46259592       6.98019928
