113
Properties=species:S:1:pos:R:3 pbc="F F F"
C        0.00000000       0.00000000       0.00000000
C        0.88155561       0.88155561      -0.88155561
C        2.23379402       1.02694962      -0.58317912
C        3.03681350       1.83994694      -1.38796996
C        2.49474607       2.51926389      -2.48923533
C        1.13852134       2.32899334      -2.79712363
C        0.33037908       1.52574239      -1.98643770
C        3.37294020       3.34446942      -3.32423141
N        4.57831804       2.96223956      -3.71145698
C        4.93894847       3.89786369      -4.62525676
N        4.05338699       4.86843493      -4.82535704
N        3.09574140       4.58729731      -3.89938995
C        2.06668301       5.52976008      -3.65451819
C        1.78896926       6.52381513      -4.60062982
C        0.76564017       7.43953117      -4.35932240
C        0.06377001       7.34335465      -3.16838823
N        0.33032862       6.41581808      -2.22293649
C        1.33105020       5.53853092      -2.47786446
H        2.67509698       0.50953581       0.26542726
H        4.09680109       1.93434551      -1.15712298
H        0.69105290       2.79506573      -3.67387884
H       -0.72148877       1.40384332      -2.23108431
H        5.87295373       3.86497011      -5.17272644
H        2.34509090       6.58604655      -5.53453609
H        0.52964244       8.20305972      -5.09262994
H        1.52534494       4.86481624      -1.64917008
C       -1.00448632       8.27395564      -2.91068647
C       -1.89915100       9.05333398      -2.69486124
Br      -3.34574811      10.31352283      -2.34589011
C       -0.88155561      -0.88155561      -0.88155561
C       -0.70595160      -0.87517005      -2.26280110
C       -1.51891828      -1.67805985      -3.06775226
C       -2.51695889      -2.48499016      -2.50129623
C       -2.65250432      -2.50778142      -1.10435257
C       -1.84846703      -1.69631098      -0.29778116
C       -3.33468836      -3.33154185      -3.37541083
N       -2.83609673      -4.04441856      -4.37149929
C       -3.87192864      -4.82917839      -4.76096189
N       -5.00773365      -4.64296875      -4.09647657
N       -4.70453009      -3.59192911      -3.28596945
C       -5.73909017      -2.95267252      -2.55919860
C       -6.95485845      -3.61335994      -2.34519581
C       -7.96358545      -2.98369968      -1.61720861
C       -7.73068356      -1.70313946      -1.14168987
N       -6.58074892      -1.02839834      -1.35993591
C       -5.61600356      -1.65895310      -2.07248893
H        0.06163914      -0.25759928      -2.72324539
H       -1.36322767      -1.67954509      -4.14549683
H       -3.37846245      -3.16027926      -0.62125575
H       -1.97948004      -1.71489338       0.78093456
H       -3.79342791      -5.57015138      -5.54707100
H       -7.12382923      -4.62125588      -2.72058843
H       -8.90305222      -3.49236038      -1.42991950
H       -4.74853298      -1.03317614      -2.25762214
C       -8.75816158      -1.04491509      -0.37707912
C       -9.61867442      -0.49365219       0.26328238
Br     -11.01005091       0.39769331       1.29869278
C       -0.88155561       0.88155561       0.88155561
C       -1.04466723       2.22887855       0.57037697
C       -1.84678584       3.03491615       1.38302840
C       -2.48361858       2.50463528       2.51499142
C       -2.33897157       1.13575304       2.78991370
C       -1.52730414       0.32994580       1.98530923
C       -3.33605886       3.37527358       3.33030860
N       -4.20010044       4.23489359       2.81702055
C       -4.91648204       4.65634931       3.88923757
N       -4.54668761       4.14265057       5.05784078
N       -3.44805285       3.41180631       4.72256949
C       -2.63337785       2.87023734       5.74734610
C       -3.14280921       2.72697458       7.04363042
C       -2.34004954       2.18040874       8.04403546
C       -1.04433340       1.81133141       7.71984808
N       -0.51494973       1.96742894       6.48670451
C       -1.31253896       2.50348321       5.53142341
H       -0.56061264       2.66092654      -0.30233365
H       -1.98230277       4.08349612       1.12247069
H       -2.85919842       0.67326032       3.62753872
H       -1.41397097      -0.72429852       2.22376641
H       -5.74358919       5.35176130       3.81529979
H       -4.16417805       3.01699908       7.28449641
H       -2.72943714       2.04821035       9.04768462
H       -0.79995787       2.65307404       4.58629934
C       -0.20743613       1.23343884       8.73928083
C        0.49346534       0.74945381       9.59305575
Br       1.62676373      -0.03310904      10.97353760
C        0.88155561      -0.88155561       0.88155561
C        1.17712265      -0.48397967       2.18282044
C        1.98988941      -1.28968558       2.98515541
C        2.51953710      -2.49156269       2.49214550
C        2.17827116      -2.89473450       1.19163266
C        1.37519767      -2.08452442       0.38283708
C        3.34884387      -3.32196927       3.37082791
N        3.04895748      -3.56788186       4.63517525
C        3.93289115      -4.53080892       4.99836885
N        4.79619795      -4.89509153       4.05588949
N        4.50695632      -4.03187366       3.04359868
C        5.36689889      -3.96433977       1.91972263
C        6.24659729      -5.01910831       1.64770860
C        7.08023700      -4.95213161       0.53212512
C        7.02085657      -3.82151386      -0.26685754
N        6.20604995      -2.77454442      -0.01151119
C        5.40726696      -2.86053638       1.07964225
H        0.77718954       0.44360126       2.58561725
H        2.20190239      -0.97923144       4.00713576
H        2.52430250      -3.84598282       0.78971214
H        1.13548532      -2.40541553      -0.62746199
H        3.94063376      -4.99132181       5.97869471
H        6.28061294      -5.90399970       2.28106089
H        7.75325372      -5.77077669       0.30130169
H        4.82758340      -1.95918154       1.25256632
C        7.86647400      -3.74348501      -1.42980322
C        8.57467861      -3.67813585      -2.40377022
Br       9.71978555      -3.57247178      -3.97859250
