126
Properties=species:S:1:pos:R:3 pbc="F F F"
C        1.79145963       1.79145963      -1.79145963
C        3.14369804       1.93685364      -1.49308314
C        3.94671752       2.74985096      -2.29787398
C        3.40465009       3.42916792      -3.39913935
C        2.04842536       3.23889737      -3.70702765
C        1.24028310       2.43564641      -2.89634172
C        4.28284423       4.25437345      -4.23413544
N        5.48822206       3.87214359      -4.62136101
C        5.84885249       4.80776772      -5.53516079
N        4.96329102       5.77833896      -5.73526107
N        4.00564542       5.49720133      -4.80929397
C        2.97658704       6.43966411      -4.56442222
C        2.69887328       7.43371915      -5.51053384
C        1.67554420       8.34943519      -5.26922642
C        0.97367403       8.25325867      -4.07829225
Br      -0.43226655       9.47802999      -3.73912893
N        1.24023264       7.32572210      -3.13284051
C        2.24095423       6.44843494      -3.38776849
H        3.58500101       1.41943983      -0.64447677
H        5.00670511       2.84424953      -2.06702701
H        1.60095692       3.70496975      -4.58378286
H        0.18841525       2.31374735      -3.14098833
H        6.78285776       4.77487414      -6.08263047
H        3.25499492       7.49595057      -6.44444012
H        1.43954646       9.11296375      -6.00253397
H        2.43524897       5.77472026      -2.55907410
C       -1.79145963      -1.79145963      -1.79145963
C       -2.73756678      -2.62921465      -1.20685339
C       -3.53843318      -3.44002862      -2.01598066
C       -3.39478233      -3.42674391      -3.41143112
C       -2.46314496      -2.54687070      -3.98433472
C       -1.65236386      -1.74356680      -3.17634058
C       -4.26872980      -4.27361982      -4.22900349
N       -5.56781686      -4.39869862      -4.01521118
C       -6.01370243      -5.07400149      -5.10407708
N       -5.07850475      -5.41295652      -5.98542977
N       -3.93384543      -5.01015079      -5.36814451
C       -2.68084449      -5.39174694      -5.90808193
C       -2.59184973      -5.80992677      -7.24134978
C       -1.35325680      -6.17080900      -7.77014001
C       -0.24383452      -6.11998112      -6.94140932
Br       1.45146187      -6.59027594      -7.64607830
N       -0.30399701      -5.75191200      -5.64288624
C       -1.51859504      -5.40853151      -5.15003110
H       -2.86614149      -2.65544966      -0.12732646
H       -4.28731225      -4.07949190      -1.55117750
H       -2.35779862      -2.46655677      -5.06535415
H       -0.92486120      -1.08081832      -3.63747142
H       -7.05663406      -5.31675519      -5.26697310
H       -3.47054735      -5.84144318      -7.88339508
H       -1.26904129      -6.47951350      -8.80648938
H       -1.49698094      -5.18383110      -4.08823128
C       -1.79145963       1.79145963       1.79145963
C       -1.22748457       2.49120013       2.85495012
C       -2.03810396       3.29203233       3.66430616
C       -3.41647862       3.39297811       3.42350063
C       -3.95972986       2.71146765       2.32315288
C       -3.15294491       1.90007472       1.51925161
C       -4.23085798       4.26121403       4.27928111
N       -3.85473664       5.47221066       4.65477936
C       -4.96643160       5.99479605       5.23055334
N       -6.01948977       5.18510841       5.27229286
N       -5.51575271       4.02270951       4.77367851
C       -6.28972960       2.83867300       4.85227076
C       -7.67344479       2.91937976       5.05030172
C       -8.43091376       1.75049051       5.11280154
C       -7.77629139       0.53494592       4.99398765
Br      -8.79039719      -1.06477081       5.05926599
N       -6.43921307       0.42479634       4.83478584
C       -5.72325163       1.57390993       4.77999610
H       -0.16135938       2.42778272       3.05977551
H       -1.58563357       3.84899426       4.48335383
H       -5.01466440       2.80565141       2.06939373
H       -3.59473553       1.36670472       0.68171068
H       -5.01481924       7.00356611       5.62197701
H       -8.17646084       3.88094767       5.13797711
H       -9.50586702       1.80095010       5.24822706
H       -4.65330096       1.40373551       4.71200687
C        1.79145963      -1.79145963       1.79145963
C        1.21582916      -2.80589766       2.55190800
C        2.02445645      -3.60686977       3.36311624
C        3.40984891      -3.39559913       3.42750932
C        3.97656994      -2.39402539       2.62375505
C        3.16820837      -1.58348880       1.82057406
C        4.22886499      -4.27089350       4.27159462
N        4.07539825      -5.58344699       4.32288142
C        5.15162471      -6.00994969       5.03020659
N        5.96707816      -5.05171544       5.45809744
N        5.31272339      -3.91921740       5.08019994
C        5.76943624      -2.66258490       5.54865223
C        7.07475997      -2.53070070       6.03766561
C        7.52208207      -1.28792878       6.48419495
C        6.64161075      -0.21861606       6.44499815
Br       7.23595964       1.48267780       7.03161052
N        5.36706884      -0.32260246       6.00912396
C        4.95353374      -1.54059215       5.58303177
H        0.14419764      -2.98754930       2.51717066
H        1.56790363      -4.40873633       3.94134169
H        5.05347552      -2.23273265       2.60350137
H        3.62330414      -0.80194336       1.21790343
H        5.35526708      -7.05477219       5.23032309
H        7.75824216      -3.37787868       6.05926477
H        8.53673666      -1.16958374       6.84872378
H        3.90407665      -1.55885136       5.30611533
C       -0.00445707       0.01189536      -1.78238275
H       -0.66409135       0.67374010      -2.43557963
H        0.65740317      -0.63156657      -2.45157240
C       -0.90989263      -0.90692880      -0.91072765
C        0.90977584       0.90977584      -0.90977584
C       -0.00465871       1.77757030       0.00794375
H       -0.66225468       2.44313916      -0.64384735
H        0.64322798       2.43503045       0.67728295
C       -1.78241447       0.00034974      -0.00472694
H       -2.45427497      -0.65498947       0.64260836
H       -2.43311707       0.67328779      -0.65473579
C       -0.91132561       0.90220522       0.91563759
C       -0.01476271      -0.02253852       1.78660255
H       -0.67934791      -0.69751639       2.42135241
H        0.63392994       0.61504881       2.47327442
C        0.01484550      -1.77751727      -0.01636693
H        0.67870853      -2.42144646      -0.68295456
H       -0.62264859      -2.45592969       0.64226336
C        1.78714474       0.01002794       0.00389507
H        2.44202412       0.67113390       0.66197326
H        2.45385902      -0.65136977      -0.64189061
C        0.91606151      -0.90478549       0.90901405
