185
Properties=species:S:1:pos:R:3 pbc="F F F"
C        0.00000000       0.00000000       0.00000000
C        0.88153851       0.88153851      -0.88153851
C        1.98318444       0.33223015      -1.52907311
C        2.78454032       1.13907856      -2.34562482
C        2.52126782       2.50473956      -2.50107097
C        1.38090946       3.02267389      -1.86842755
C        0.57065787       2.22440594      -1.05424554
N        3.24526678       3.33278759      -3.35613461
C        4.70426935       3.16829308      -3.54270020
H        5.02532007       2.13768381      -3.37113231
C        5.00539470       3.43960679      -5.01883902
C        4.40192501       2.61669503      -5.99069101
C        4.64968346       2.80390330      -7.35332125
C        5.50727462       3.81903850      -7.76178309
C        6.11474499       4.64465746      -6.82211563
C        5.86660223       4.45559562      -5.45765131
P        5.56640516       4.19198606      -2.25270822
S        5.02428146       6.05593794      -2.10208254
O        5.40208201       3.38577711      -0.85550790
C        6.03785466       2.13797015      -0.65658160
C        7.54047903       2.19418433      -0.96029003
C        8.14034097       0.78833780      -0.82718677
C        8.24720038       3.14018999       0.02690547
C        7.73063026       2.70790597      -2.39131816
O        7.14937523       3.99054582      -2.55123418
H        2.21576863      -0.72442923      -1.42464412
H        3.59535486       0.65757675      -2.88098041
H        1.10662333       4.06722735      -2.00316122
H       -0.30012004       2.66094247      -0.57259526
H        3.00040987       4.32110026      -3.25281154
H        3.71371070       1.83017518      -5.68579435
H        4.16266822       2.16050708      -8.08020565
H        6.78199013       5.44536829      -7.13680731
H        6.36356049       5.13191181      -4.76854333
H        5.86889058       1.84837113       0.38719199
H        5.53850816       1.38566079      -1.27460120
H        7.64926123       0.08101623      -1.50595966
H        8.02442633       0.40354316       0.19314864
H        9.21061117       0.78811819      -1.06436373
H        7.85338426       4.16191765      -0.02374125
H        9.32324069       3.19252152      -0.18261377
H        8.12954154       2.79301524       1.06020216
H        8.79594898       2.79586646      -2.63459182
H        7.29652869       2.02171402      -3.12696924
C        5.76600119       4.01757361      -9.16436798
C        5.98268470       4.18384676     -10.33903282
Br       6.33304359       4.45269639     -12.23836653
C       -0.88153851      -0.88153851      -0.88153851
C       -0.83774583      -2.26474980      -0.74199207
C       -1.65432378      -3.07152489      -1.54339503
C       -2.49675017      -2.51681784      -2.51351035
C       -2.54993620      -1.11760099      -2.60447371
C       -1.74197295      -0.30194926      -1.80538714
N       -3.37836277      -3.27065154      -3.28517468
C       -3.02231614      -4.62296217      -3.76998431
H       -2.30482446      -5.11841514      -3.11089659
C       -4.28938363      -5.47870885      -3.69574803
C       -4.89758130      -5.67234765      -2.43938210
C       -6.04685625      -6.45596416      -2.30408760
C       -6.60311024      -7.05796473      -3.42702124
C       -6.02181369      -6.88180228      -4.67790211
C       -4.87026314      -6.09756640      -4.81201962
P       -2.16492901      -4.43736194      -5.40880848
S       -3.06674561      -3.35934198      -6.75621435
O       -0.67444771      -3.89190840      -5.07701090
C        0.26061377      -4.70187604      -4.39114414
C        0.42948585      -6.07913041      -5.04530882
C        1.37234917      -6.93686771      -4.19134700
C        1.02410713      -5.92774352      -6.45684850
C       -0.94565428      -6.74908003      -5.13512008
O       -1.84810244      -5.95606340      -5.88698940
H       -0.19052858      -2.72538769      -0.00006725
H       -1.63523689      -4.13989827      -1.35877687
H       -3.22924013      -0.63987585      -3.30789593
H       -1.80284517       0.77806856      -1.90864108
H       -3.82426310      -2.72367833      -4.02638026
H       -4.48333992      -5.19148738      -1.55485292
H       -6.49942405      -6.57938597      -1.32457093
H       -6.45706863      -7.34549346      -5.56160364
H       -4.46151884      -5.99016072      -5.81233609
H        1.21506824      -4.16259650      -4.38254146
H       -0.05427111      -4.79694221      -3.34755684
H        0.98837663      -7.05362395      -3.17098980
H        2.36729724      -6.48110590      -4.12101218
H        1.49393906      -7.93953631      -4.61749583
H        0.38986517      -5.31810312      -7.11080521
H        1.14607358      -6.90670222      -6.93774735
H        2.01187035      -5.45328561      -6.42093936
H       -0.87157992      -7.72414754      -5.63067979
H       -1.36987196      -6.93346152      -4.14187846
C       -7.78769041      -7.86590499      -3.29434738
C       -8.77977631      -8.54255496      -3.18323302
Br     -10.38389529      -9.63664073      -3.00357050
C       -0.88153851       0.88153851       0.88153851
C       -0.29709290       1.74927544       1.79811935
C       -1.10607440       2.56483126       2.59833804
C       -2.50208204       2.50357662       2.52141970
C       -3.06290969       1.64875954       1.56034168
C       -2.26383210       0.83311821       0.75235904
N       -3.34743747       3.34279119       3.24396032
C       -3.02671573       3.76178748       4.62675941
H       -1.94953737       3.77282731       4.81177151
C       -3.47171457       5.21913654       4.77298940
C       -2.88511291       6.18878557       3.93541257
C       -3.23773723       7.53772040       4.03145037
C       -4.18367215       7.93464461       4.96977944
C       -4.77715816       6.99680351       5.80755642
C       -4.42249494       5.64625068       5.71110354
P       -3.73023309       2.49251096       5.78835537
S       -5.60556841       2.02616689       5.55056665
O       -2.75473813       1.20124909       5.68737979
C       -1.42019890       1.25964410       6.15256341
C       -1.32761021       1.77168620       7.59565698
C        0.14763058       1.90958986       7.99390626
C       -2.01945168       0.78643400       8.55459921
C       -2.01792109       3.13739384       7.67453946
O       -3.37389276       3.04430946       7.27295302
H        0.78441159       1.81646549       1.88392962
H       -0.60885521       3.27101511       3.25404170
H       -4.14234734       1.60669786       1.42796671
H       -2.73254392       0.17653154       0.02434223
H       -4.33287473       3.07879260       3.16265435
H       -2.15695768       5.88910517       3.18361738
H       -2.77619044       8.26127864       3.36591186
H       -5.52336026       7.30118346       6.53962201
H       -4.92062024       4.95699029       6.38640512
H       -1.00403770       0.24815427       6.07787774
H       -0.83737526       1.88856576       5.47282913
H        0.67844028       2.59355146       7.32112595
H        0.66049760       0.94109614       7.95422230
H        0.24999043       2.29991146       9.01317206
H       -3.07942460       0.64721693       8.31240163
H       -1.96381804       1.14374905       9.59080890
H       -1.54179458      -0.19984718       8.52040721
H       -2.00357711       3.52167067       8.70115947
H       -1.50891604       3.88282727       7.05346864
C       -4.55188693       9.32293042       5.07312543
C       -4.86026680      10.48561979       5.15967770
Br      -5.35889097      12.36559016       5.29962539
C        0.88153851      -0.88153851       0.88153851
C        2.24000940      -0.60647840       0.99799990
C        3.04527803      -1.40897429       1.81499138
C        2.51838711      -2.51141938       2.49727187
C        1.13803185      -2.74091905       2.39306000
C        0.32339868      -1.94247706       1.58343362
N        3.26188667      -3.29643084       3.37587147
C        4.68574888      -3.60923146       3.12028229
H        5.17497444      -2.83352752       2.52563424
C        5.40368336      -3.58806297       4.47209419
C        5.40413888      -2.39042877       5.21474340
C        6.05548315      -2.30325391       6.44817096
C        6.71701725      -3.41601336       6.95506561
C        6.73070538      -4.60939537       6.24141734
C        6.07884112      -4.69522358       5.00578446
P        4.75758048      -5.15825664       2.09526230
S        3.74699931      -6.69047516       2.74482748
O        4.32514169      -4.72421066       0.59401467
C        5.14363887      -3.86888134      -0.18011381
C        6.59221805      -4.36673679      -0.26400145
C        7.44094396      -3.33963717      -1.02471559
C        6.64871374      -5.71535303      -1.00358187
C        7.13328926      -4.53715182       1.15941331
O        6.34167765      -5.45273377       1.89674382
H        2.67928334       0.24044409       0.47714427
H        4.08499713      -1.12203394       1.92688096
H        0.67469964      -3.55476475       2.94754752
H       -0.74045757      -2.15442389       1.51945137
H        2.75634072      -4.12958345       3.68839751
H        4.87416490      -1.51708390       4.83843143
H        6.03063980      -1.36987387       7.00286727
H        7.24158837      -5.48578826       6.63678910
H        6.11754732      -5.65229878       4.49416955
H        4.70026053      -3.81088866      -1.18107947
H        5.09711548      -2.86022026       0.24143442
H        7.41174011      -2.35920902      -0.53471200
H        7.07756562      -3.20826794      -2.05101271
H        8.49010478      -3.65264555      -1.07965725
H        6.05388874      -6.48808582      -0.50293140
H        7.68024037      -6.08477919      -1.06664358
H        6.26978845      -5.62060626      -2.02804009
H        8.15793595      -4.92653198       1.14193933
H        7.17004029      -3.58135468       1.69381698
C        7.38933690      -3.33284395       8.22576193
C        7.95240461      -3.26318958       9.28997009
Br       8.86283747      -3.15056435      11.01070469
