193
Properties=species:S:1:pos:R:3 pbc="F F F"
C        0.00000000       0.00000000       0.00000000
C        0.88314039       0.88314039      -0.88314039
C        1.64848585       0.29765673      -1.88954491
C        2.44556976       1.09957678      -2.70113837
C        2.47956224       2.47940453      -2.49467583
C        1.72185121       3.07509171      -1.47153816
C        0.90875967       2.26436205      -0.66887866
C        1.83941143       4.55905186      -1.31349088
O        2.24578940       5.20539318      -2.27455327
N        1.46009512       5.08971591      -0.09310466
C        1.48457295       6.47745882       0.22772821
C        2.60361923       7.28691923      -0.04193409
C        3.90425857       6.77988785      -0.60773591
C        2.54445222       8.65452713       0.26830526
C        1.41055663       9.23652343       0.84880834
C        1.41711263      10.72681687       1.06404801
C        0.28867846       8.42709442       1.11251221
N       -0.88203352       9.06308350       1.60054660
C       -2.13308920       8.87863204       1.02952616
O       -2.40145977       8.16078035       0.07435983
C       -3.21351126       9.70586320       1.62411265
C       -3.28810338       9.90741287       3.00871895
C       -4.33007317      10.66621885       3.54376110
C       -5.29200961      11.22392703       2.69950777
C       -5.21457895      11.01480124       1.32196545
Br      -6.52186338      11.77241316       0.18600594
C       -4.18433639      10.25199298       0.77767983
C        0.35229480       7.02807778       0.89166249
C       -0.75251600       6.10915548       1.36478935
H        1.62603663      -0.77664877      -2.05306062
H        3.04113842       0.65627647      -3.49581335
H        3.10726105       3.09595226      -3.13779593
H        0.27532529       2.67638332       0.10752979
H        0.83640110       4.53004149       0.46360439
H        4.08337722       5.73231307      -0.34822334
H        4.74911757       7.33877233      -0.18816931
H        3.92654329       6.90821450      -1.69376845
H        3.40592351       9.28085649       0.03744079
H        1.05978821      10.98275146       2.06594945
H        0.79087176      11.21666818       0.31170129
H        2.42926420      11.13837653       0.98320896
H       -0.75768044       9.96433146       2.04091681
H       -2.56239386       9.45178420       3.67810664
H       -4.40126901      10.81370471       4.61896474
H       -6.10285418      11.81093549       3.12437544
H       -4.12825306      10.07831263      -0.29501971
H       -0.33255993       5.30938345       1.98585284
H       -1.27774078       5.66885011       0.51136995
H       -1.48361277       6.60166301       2.00974819
C       -0.88314039      -0.88314039      -0.88314039
C       -1.87156440      -1.66939045      -0.29473265
C       -2.68321955      -2.46660367      -1.09646170
C       -2.49467110      -2.47976501      -2.47920648
C       -1.48955231      -1.70079211      -3.07813665
C       -0.68692236      -0.88780816      -2.26726986
C       -1.34969833      -1.79678488      -4.56547096
O       -2.31385081      -2.20738400      -5.20450104
N       -0.14154275      -1.39437361      -5.10699933
C        0.16112631      -1.39639942      -6.49903044
C       -0.10457265      -2.50822348      -7.31967642
C       -0.64649712      -3.82279502      -6.82259018
C        0.18667591      -2.42702357      -8.69032642
C        0.74448884      -1.27798906      -9.26477150
C        0.93998638      -1.26215443     -10.75771343
C        1.00419288      -0.16341233      -8.44404122
N        1.46835371       1.02191182      -9.07076892
C        0.88348630       2.26274942      -8.86225239
O       -0.06549810       2.50898112      -8.12844377
C        1.45282436       3.36172068      -9.68278434
C        2.83353556       3.45732835      -9.90145445
C        3.34475226       4.51616655     -10.65330338
C        2.48063296       5.47403324     -11.18707584
C        1.10712232       5.37558205     -10.96096120
Br      -0.05583304       6.67748272     -11.68619353
C        0.58656322       4.32829383     -10.20483381
C        0.80279380      -0.24828536      -7.04321854
C        1.27356208       0.85057307      -6.11598529
H       -2.02107943      -1.66319599       0.78182694
H       -3.46406404      -3.07843138      -0.65073281
H       -3.13764043      -3.10781476      -3.09555405
H        0.07557791      -0.23877380      -2.68098292
H        0.41432780      -0.77073011      -4.54643589
H       -0.37077082      -4.01216534      -5.78097746
H       -0.22335297      -4.65461074      -7.39809550
H       -1.73375269      -3.85781621      -6.93695733
H       -0.04117573      -3.28320229      -9.32496119
H        1.93363174      -0.88823312     -11.02198885
H        0.17305829      -0.63959369     -11.22930326
H        0.86696087      -2.26980960     -11.18158304
H        1.89830873       0.91523974      -9.97928267
H        3.51836819       2.73466311      -9.46431500
H        4.41687711       4.60356123     -10.81390930
H        2.88700479       6.29807187     -11.76878253
H       -0.48290817       4.25569899     -10.01787010
H        1.91064194       0.42845613      -5.33006875
H        0.41925496       1.35860285      -5.65759718
H        1.90228686       1.59656203      -6.60715094
C       -0.88314039       0.88314039       0.88314039
C       -1.79044213       1.75722726       0.28801810
C       -2.60231473       2.55503616       1.08893402
C       -2.49459001       2.48066842       2.47838416
C       -1.57086128       1.61227609       3.08534371
C       -0.76832164       0.79978115       2.27389759
C       -1.51321548       1.61753859       4.58120010
O       -2.48894189       2.04791049       5.18888347
N       -0.36292970       1.11577409       5.16421189
C       -0.14261414       1.02311348       6.56857593
C       -0.39401618       2.10150821       7.43694816
C       -0.83240363       3.47101624       6.98846246
C       -0.18843391       1.92774273       8.81449745
C        0.27041446       0.71802718       9.35065900
C        0.37701215       0.60825823      10.84863541
C        0.51569379      -0.36275570       8.48171016
N        0.87612736      -1.60605173       9.06268248
C        0.23676065      -2.79709668       8.74987400
O       -0.67980265      -2.94640888       7.95156698
C        0.69545991      -3.97119187       9.53489107
C        2.05360225      -4.15939919       9.82359198
C        2.46060811      -5.28629212      10.53928481
C        1.51509118      -6.21997877      10.96747959
C        0.16471899      -6.02894705      10.67192287
Br      -1.10889192      -7.29864372      11.25429564
C       -0.25198708      -4.91278320       9.95077287
C        0.40163851      -0.18892019       7.07926879
C        0.86440000      -1.26050212       6.11675225
H       -1.87679760       1.81932597      -0.79367508
H       -3.32070619       3.23522783       0.63729421
H       -3.13682591       3.11023848       3.09394484
H       -0.06839788       0.08534753       2.69043340
H        0.18946849       0.49261011       4.59969659
H       -0.48613162       3.70122103       5.97656097
H       -0.39833097       4.24354364       7.63418460
H       -1.92088728       3.56324324       7.04439571
H       -0.40535752       2.75939100       9.48459069
H        1.33128841       0.16277644      11.14510219
H       -0.44945076       0.00653771      11.23985019
H        0.33512403       1.59348121      11.32607459
H        1.25740409      -1.57512370       9.99826199
H        2.80175431      -3.45499843       9.46803644
H        3.51501893      -5.44503969      10.75352958
H        1.84053357      -7.09729050      11.52152993
H       -1.30302845      -4.76748546       9.70953628
H        1.56875324      -0.83359530       5.39331923
H        0.01161040      -1.69153187       5.58288164
H        1.42108845      -2.06802719       6.59741770
C        0.88314039      -0.88314039       0.88314039
C        0.33611864      -1.48519204       2.01437682
C        1.13452515      -2.29719300       2.81456676
C        2.47609624      -2.49360792       2.48393844
C        3.03849883      -1.87720987       1.35277237
C        2.22531848      -1.07452301       0.54215890
C        4.49053042      -2.13032597       1.09109778
O        4.99882613      -3.12279020       1.60411952
N        5.14432407      -1.22825080       0.27034082
C        6.51565742      -1.32239699      -0.10375086
C        7.53259057      -1.56059726       0.83928472
C        7.30923967      -1.65684312       2.32579954
C        8.85879691      -1.67720468       0.39467250
C        9.20316816      -1.55216974      -0.95706617
C       10.64177669      -1.77815913      -1.34005433
C        8.18414231      -1.32015564      -1.90103728
N        8.54797091      -1.30492788      -3.27239540
C        7.89122151      -2.05905975      -4.23426459
O        6.93509205      -2.80232100      -4.05245230
C        8.48268840      -1.97959822      -5.59404732
C        8.95323470      -0.76295428      -6.10559845
C        9.47887603      -0.71090809      -7.39739954
C        9.53712165      -1.86948926      -8.17420126
C        9.06187849      -3.07674750      -7.66036916
Br       9.14323757      -4.64056135      -8.71925507
C        8.52710702      -3.13883734      -6.37596761
C        6.84956059      -1.11020718      -1.47105767
C        5.77934227      -0.64773859      -2.43523073
H       -0.70785509      -1.33396628       2.27633730
H        0.71779201      -2.77996812       3.69546811
H        3.09001193      -3.13248131       3.11851600
H        2.59800021      -0.60810854      -0.36192994
H        4.56560802      -0.68539989      -0.34816971
H        6.44098845      -1.07462588       2.64829929
H        8.16514297      -1.24067938       2.87023686
H        7.19679105      -2.70136303       2.63037215
H        9.63951831      -1.88318933       1.12663157
H       10.99776733      -0.99603687      -2.01721398
H       10.75337228      -2.75784031      -1.81537393
H       11.29849052      -1.74948442      -0.46354317
H        9.52066713      -1.12594028      -3.48087321
H        8.88390192       0.15139354      -5.52122468
H        9.83204697       0.23354409      -7.80503192
H        9.94478863      -1.82005665      -9.18113942
H        8.14572259      -4.07674889      -5.97739220
H        5.29070773       0.25327034      -2.04646671
H        5.03053917      -1.43227138      -2.58307117
H        6.17014322      -0.34844716      -3.41028832
