138
Properties=species:S:1:pos:R:3 pbc="F F F"
O        6.00537153       1.54581598      -1.49562648
C        5.50099655       2.25616752      -2.35347065
C        4.03699653       2.40628300      -2.48227596
C        3.18212085       1.69668976      -1.63200521
C        1.79538708       1.79538708      -1.79538708
C        1.27005109       2.63961392      -2.78164981
O       -0.11015684       2.70450804      -3.03834875
C       -0.84822311       3.39889389      -2.09715107
O       -0.46050814       3.88520951      -1.04834711
C       -2.24695257       3.43674747      -2.56937021
C       -2.55142165       4.00045447      -3.81158810
C       -3.88206634       4.09122170      -4.22461609
C       -4.91457054       3.60842762      -3.40778747
C       -6.34180111       3.76018072      -3.84503765
C       -4.59702861       3.04218948      -2.16427990
C       -3.26620711       2.96091574      -1.74089384
C        2.13514305       3.34779922      -3.62879404
Br       1.47844053       4.45176092      -5.02464116
C        3.51984992       3.23276073      -3.48155634
H        6.12204878       2.81076283      -3.07857802
H        3.60257679       1.04825625      -0.86511859
H       -1.76683517       4.39457370      -4.44977143
H       -4.11320175       4.55047536      -5.18272154
H       -7.01655560       3.15539989      -3.22886274
H       -6.46051511       3.43214663      -4.88234784
H       -6.64711656       4.80706806      -3.76361459
H       -5.38516924       2.67061900      -1.51408362
H       -3.03228782       2.53255553      -0.76797675
H        4.18724946       3.77166024      -4.15166671
O       -5.59878018      -0.42015250      -3.02788131
C       -5.17189268      -1.48295867      -3.45578336
C       -3.86486873      -2.02698105      -3.03370571
C       -3.05861226      -1.30531288      -2.14689067
C       -1.79538708      -1.79538708      -1.79538708
C       -1.36344495      -3.02868572      -2.29918414
O       -0.07135872      -3.51847519      -2.04286604
C        0.12555693      -4.00867392      -0.76470485
O       -0.65299459      -3.99367094       0.17361704
C        1.49725639      -4.55239007      -0.70403143
C        1.88879397      -5.56430325      -1.58511164
C        3.16596940      -6.11876265      -1.48097820
C        4.06378910      -5.65818775      -0.50724589
C        5.41360530      -6.30020652      -0.37681604
C        3.66095357      -4.64029013       0.36989579
C        2.37779150      -4.09084019       0.27744622
C       -2.17925254      -3.74546795      -3.18701582
Br      -1.61544909      -5.38704223      -3.95235127
C       -3.43103111      -3.24662187      -3.55651400
H       -5.74431726      -2.07944114      -4.18763123
H       -3.40806700      -0.35062112      -1.75726351
H        1.20156472      -5.94496717      -2.33410750
H        3.45622378      -6.92049266      -2.15572627
H        6.07895222      -5.70891558       0.26225634
H        5.89136068      -6.38781711      -1.35752294
H        5.31139956      -7.29671694       0.06175129
H        4.34069337      -4.27682465       1.13659789
H        2.07075127      -3.31133515       0.97233942
H       -4.05374152      -3.79852514      -4.25830975
O       -0.06963281       4.93085359       4.04632759
C       -1.28449465       4.79371310       4.03242696
C       -1.93869592       3.69663856       3.29022100
C       -1.16827847       2.79748877       2.54504857
C       -1.79538708       1.79538708       1.79538708
C       -3.18986768       1.67058237       1.83086476
O       -3.86745888       0.73635838       1.02888269
C       -3.77192241      -0.57669458       1.45259401
O       -3.11516593      -1.02102506       2.37890761
C       -4.60536365      -1.39631352       0.55011498
C       -5.96825232      -1.11905598       0.41142458
C       -6.76391969      -1.93660184      -0.39354641
C       -6.20270948      -3.02618537      -1.07487956
C       -7.08202820      -3.92381886      -1.89479208
C       -4.83320903      -3.29334037      -0.93042789
C       -4.03484602      -2.48449020      -0.11475335
C       -3.95381424       2.57626311       2.58165896
Br      -5.84880496       2.49535287       2.61068476
C       -3.33061126       3.59107561       3.31248011
H       -1.94816076       5.49415827       4.56907059
H       -0.08457749       2.90111228       2.53026186
H       -6.42327161      -0.29014017       0.94437852
H       -7.82753894      -1.72781783      -0.47972595
H       -6.49108691      -4.58849950      -2.53488039
H       -7.73143718      -3.33104927      -2.54640855
H       -7.70134807      -4.54036188      -1.23742010
H       -4.38270329      -4.13893820      -1.44423171
H       -2.97620371      -2.70935505       0.00139580
H       -3.92850063       4.30141403       3.88066174
O        0.27442310      -5.42016929       3.35222160
C        1.44795235      -5.12898776       3.53369459
C        2.02376821      -3.86093096       3.04085631
C        1.23131263      -2.96791505       2.31158814
C        1.79538708      -1.79538708       1.79538708
C        3.14064739      -1.50066895       2.04999848
O        3.77083151      -0.38065515       1.48121329
C        3.43116786       0.83336790       2.05002188
O        2.60400564       1.05022622       2.91926906
C        4.24379464       1.87548139       1.39085187
C        5.63902393       1.79721378       1.41881077
C        6.40248719       2.81822702       0.84951128
C        5.77929721       3.91535325       0.23770059
C        6.61501472       5.02776571      -0.32383175
C        4.37832571       3.98202603       0.21314109
C        3.60958413       2.96763520       0.79365355
C        3.92699444      -2.40173754       2.78300433
Br       5.77050990      -2.08544004       3.09889266
C        3.37100802      -3.58348299       3.27967597
H        2.13316246      -5.81015994       4.06806722
H        0.18520554      -3.20532806       2.12541803
H        6.13880200       0.96399419       1.90270214
H        7.48742828       2.76136830       0.89393518
H        6.01954480       5.69823454      -0.95360323
H        7.42171654       4.62417855      -0.94355863
H        7.04876408       5.61529898       0.49010098
H        3.87809889       4.82938515      -0.24918036
H        2.52335986       3.03652044       0.78140504
H        3.98912228      -4.28734383       3.83411029
C       -0.00445707       0.01189536      -1.78238275
H       -0.66409135       0.67374010      -2.43557963
H        0.65740317      -0.63156657      -2.45157240
C       -0.90989263      -0.90692880      -0.91072765
C        0.90977584       0.90977584      -0.90977584
C       -0.00465871       1.77757030       0.00794375
H       -0.66225468       2.44313916      -0.64384735
H        0.64322798       2.43503045       0.67728295
C       -1.78241447       0.00034974      -0.00472694
H       -2.45427497      -0.65498947       0.64260836
H       -2.43311707       0.67328779      -0.65473579
C       -0.91132561       0.90220522       0.91563759
C       -0.01476271      -0.02253852       1.78660255
H       -0.67934791      -0.69751639       2.42135241
H        0.63392994       0.61504881       2.47327442
C        0.01484550      -1.77751727      -0.01636693
H        0.67870853      -2.42144646      -0.68295456
H       -0.62264859      -2.45592969       0.64226336
C        1.78714474       0.01002794       0.00389507
H        2.44202412       0.67113390       0.66197326
H        2.45385902      -0.65136977      -0.64189061
C        0.91606151      -0.90478549       0.90901405
