173
Properties=species:S:1:pos:R:3 pbc="F F F"
C        0.00000000       0.00000000       0.00000000
C        0.88191085       0.88191085      -0.88191085
C        0.50192947       2.19607641      -1.14612223
C        1.31418450       3.00548634      -1.94408260
C        2.51336350       2.50652324      -2.47590202
C        2.87198301       1.17556371      -2.21334609
C        2.06090655       0.36628486      -1.41517981
C        3.40249885       3.37980645      -3.32673058
S        2.93996909       3.31077118      -5.07991814
C        4.14465102       4.40869092      -5.71339261
N        5.41750240       4.26182548      -5.43050600
C        6.14570088       5.27710704      -6.02790904
C        7.54011212       5.45656406      -5.95598214
C        8.14049093       6.55988668      -6.58319124
C        7.37576355       7.48540789      -7.28878224
N        7.90560139       8.62927886      -7.92188007
C        9.22498460       9.04399858      -7.96359095
O       10.19554840       8.45177823      -7.51085578
C        9.44761530      10.33936338      -8.67764064
C        8.49528790      11.37027564      -8.66379129
C        8.73153328      12.55362902      -9.37019263
C        9.92369748      12.71386181     -10.07488883
C       10.88899623      11.70808142     -10.07094164
C       10.65249087      10.52286121      -9.36870419
C        5.98639808       7.30757711      -7.38780971
C        5.39452640       6.20196565      -6.75273798
S        3.73629802       5.73994160      -6.70354051
H       -0.42067529       2.59896484      -0.73686661
H        1.00588862       4.02917959      -2.14673930
H        3.78935413       0.76253702      -2.62886495
H        2.35813978      -0.65992177      -1.21679524
H        4.44608152       3.06966373      -3.20038304
H        3.33628097       4.41679433      -2.97605652
H        8.14728397       4.74211581      -5.40785965
H        9.21868393       6.66098284      -6.49522543
H        7.23666750       9.18492180      -8.43659673
H        7.57684663      11.28456314      -8.08960912
H        7.98605238      13.34548616      -9.35807437
H       11.82560263      11.83453533     -10.60808222
H       11.40846025       9.73928154      -9.36606124
H        5.36233194       8.00991941      -7.93127447
C       10.16104539      13.93107816     -10.80677020
C       10.35982427      14.95049685     -11.41972084
Br      10.68123291      16.59881065     -12.41081019
C       -0.88191085      -0.88191085      -0.88191085
C       -0.37417908      -2.07261178      -1.39733726
C       -1.18458099      -2.88401160      -2.19516084
C       -2.50842402      -2.51172482      -2.47563993
C       -2.99777962      -1.30102606      -1.96208713
C       -2.18848094      -0.48996669      -1.16392359
C       -3.39370341      -3.39051809      -3.32481438
S       -3.22482205      -3.01406699      -5.09176937
C       -4.35451976      -4.19135271      -5.72086208
N       -5.57545110      -4.28500801      -5.24937477
C       -6.24445081      -5.31174075      -5.89452540
C       -7.57330733      -5.71523916      -5.66411184
C       -8.11003201      -6.80408969      -6.36944714
C       -7.34735969      -7.49477677      -7.30781723
N       -7.81051661      -8.61146738      -8.03477632
C       -9.05200751      -9.21807999      -7.96248663
O      -10.01067789      -8.85159994      -7.29590457
C       -9.20681597     -10.42399972      -8.83380363
C       -8.13378872     -11.28550699      -9.11005912
C       -8.31583281     -12.38499464      -9.95452747
C       -9.57093278     -12.63325905     -10.50825629
C      -10.65047597     -11.80077218     -10.21677114
C      -10.46908096     -10.69885555      -9.37611976
C       -6.02746161      -7.09000294      -7.56432034
C       -5.49813886      -6.00130499      -6.84978618
S       -3.93032461      -5.29639327      -6.95306225
H        0.64691613      -2.37764254      -1.18442975
H       -0.77654326      -3.81003034      -2.59523391
H       -4.01610200      -0.98441180      -2.18024229
H       -2.58670236       0.44081873      -0.76912963
H       -4.43683770      -3.26742237      -3.01186821
H       -3.13413646      -4.44207765      -3.15291772
H       -8.17798978      -5.18517061      -4.93409904
H       -9.13755541      -7.08359727      -6.15373953
H       -7.16160178      -8.98099902      -8.71558522
H       -7.15687574     -11.13538170      -8.65876146
H       -7.47771090     -13.04474070     -10.16716131
H      -11.63386905     -11.99859974     -10.63575139
H      -11.31403836     -10.05084113      -9.14892355
H       -5.40715375      -7.60621138      -8.29016069
C       -9.75347447     -13.76261397     -11.38280531
C       -9.90635313     -14.70844872     -12.11524012
Br     -10.15354499     -16.23778350     -13.29952526
C       -0.88191085       0.88191085       0.88191085
C       -2.22345357       0.55417111       1.06650343
C       -3.02695056       1.35514296       1.88165992
C       -2.49093341       2.48361467       2.52124068
C       -1.14211978       2.80816464       2.31060839
C       -0.33829905       2.00750345       1.49656872
C       -3.34962740       3.34491058       3.41449789
S       -4.20436907       4.64515050       2.48113884
C       -5.06495326       5.39694398       3.80483731
N       -4.44405159       5.76522992       4.90055237
C       -5.35742269       6.29896081       5.79433346
C       -5.07127643       6.80489854       7.07648335
C       -6.10972175       7.28147718       7.89236991
C       -7.43004431       7.27011765       7.44979173
N       -8.52601403       7.70854936       8.22219693
C       -8.51152868       8.20891486       9.51213059
O       -7.52592363       8.42881408      10.20344469
C       -9.86131278       8.53538955      10.06791699
C      -11.00613576       7.80042889       9.72279018
C      -12.25364785       8.15910320      10.24260388
C      -12.35498586       9.23888319      11.11857907
C      -11.21977601       9.95720204      11.49104124
C       -9.97260679       9.60248433      10.96896516
C       -7.72813201       6.78890939       6.16474350
C       -6.68177746       6.31011292       5.35733964
S       -6.75158011       5.66672692       3.76147310
H       -2.65190708      -0.31964985       0.58289893
H       -4.07415291       1.09170762       2.01594697
H       -0.70938189       3.68792244       2.78345176
H        0.70591283       2.27037872       1.35054736
H       -2.72668497       3.79160258       4.19784073
H       -4.09186608       2.71624637       3.92101938
H       -4.04562540       6.81822698       7.43340705
H       -5.84218812       7.65624342       8.87646067
H       -9.42026775       7.68575937       7.75215890
H      -10.94614307       6.93106666       9.07380917
H      -13.13641876       7.58710578       9.96608837
H      -11.29254937      10.79137415      12.18429666
H       -9.08723917      10.16421992      11.26234395
H       -8.74637947       6.76765980       5.78948655
C      -13.64218343       9.60977067      11.64693965
C      -14.72021139       9.92038894      12.08944164
Br     -16.46329142      10.42263241      12.80492992
C        0.88191085      -0.88191085       0.88191085
C        2.19311112      -0.49716719       1.15384980
C        2.99588554      -1.29876554       1.96910236
C        2.48901506      -2.48524522       2.52152849
C        1.17170790      -2.86579055       2.22339436
C        0.36857076      -2.06457772       1.40922273
C        3.34610322      -3.34837121       3.41456146
S        4.31475434      -4.55237350       2.46353057
C        5.14618662      -5.32907459       3.79147334
N        4.49123784      -5.78594036       4.83265569
C        5.38541919      -6.31965099       5.74564678
C        5.06223407      -6.90681522       6.98360904
C        6.08204626      -7.37307566       7.82844692
C        7.42054754      -7.27159734       7.45780881
N        8.49789603      -7.69459958       8.26426471
C        8.44495227      -8.26291179       9.52471007
O        7.43880080      -8.56869912      10.15068249
C        9.78041288      -8.54993664      10.13426980
C       10.90050880      -7.74083886       9.88800717
C       12.13749912      -8.06322558      10.45463023
C       12.25175284      -9.18154703      11.27914825
C       11.13898028      -9.97501557      11.55402344
C        9.90265636      -9.65643726      10.98496266
C        7.75710265      -6.70833944       6.21634281
C        6.72885656      -6.24071712       5.37965635
S        6.84480507      -5.51071696       3.82425810
H        2.59837136       0.42162842       0.73841321
H        4.01949337      -0.99033249       2.17198165
H        0.76303336      -3.79015126       2.62757146
H       -0.65149227      -2.37167762       1.19482791
H        2.70904939      -3.86693222       4.14014667
H        4.02737160      -2.71086517       3.99089505
H        4.02203876      -6.99083487       7.28438579
H        5.78549239      -7.81263976       8.77676005
H        9.41225245      -7.60176221       7.84417136
H       10.82721861      -6.84234791       9.28145237
H       13.00144713      -7.43352316      10.25464261
H       11.22091220     -10.84011933      12.20718865
H        9.03472225     -10.27693278      11.20214801
H        8.79041839      -6.61581911       5.89728832
C       13.52853977      -9.51456575      11.85578822
C       14.59784883      -9.79346893      12.33872420
Br      16.32683113     -10.24443179      13.11959083
