186
Properties=species:S:1:pos:R:3 pbc="F F F"
C        1.79152861       1.79152861      -1.79152861
C        2.49298324       2.85500316      -1.22347408
C        3.30922244       3.65308290      -2.02735888
C        3.42787772       3.37417336      -3.39236078
C        2.68937799       2.33521694      -3.96713743
C        1.88172316       1.53166358      -3.15901052
S        4.46084038       4.41015538      -4.41646979
O        3.87364670       4.43508424      -5.74241545
O        4.60627981       5.66383267      -3.68900279
C        5.97155145       3.59581074      -4.45121389
C        7.07953013       4.20230256      -4.00352512
N        8.33642644       3.63879398      -3.97521355
C        8.42999710       2.43615182      -4.44197660
S        9.91149017       1.53955782      -4.46146815
C       10.75602205       2.23832350      -3.01228582
C        9.97589038       1.94754672      -1.73491224
O       10.13650164       0.89446531      -1.12621054
N        9.09080533       2.95999747      -1.39895878
C        8.15059530       2.97791981      -0.34693038
C        8.02221765       1.96290397       0.59724194
C        7.05198250       2.04430535       1.60166319
C        6.20613947       3.14863952       1.67364885
C        6.33905723       4.17050773       0.73975227
Br       5.22660833       5.69525267       0.86092115
C        7.29838323       4.08987862      -0.27143875
N        7.38718171       1.73704474      -4.95780333
H        7.54024324       0.80613420      -5.31838162
C        6.11953356       2.24678256      -5.00923400
O        5.19638531       1.59887928      -5.48164831
H        2.40417801       3.07425295      -0.16208298
H        3.83201997       4.49587396      -1.58423139
H        2.74336210       2.13503665      -5.03601684
H        1.32753642       0.71018933      -3.60672823
H        7.03382984       5.21527607      -3.60538312
H       10.92579575       3.31206712      -3.13891032
H       11.74121194       1.76870969      -2.92065357
H        9.02476703       3.72534404      -2.06734304
H        8.66334302       1.08632574       0.58562000
H        6.96606531       1.24319376       2.33232074
H        5.46155364       3.20550830       2.46253316
H        7.38410962       4.90245575      -0.98691659
C       -1.79152861      -1.79152861      -1.79152861
C       -2.25200941      -1.30458749      -3.01486358
C       -3.04738407      -2.11549544      -3.82678471
C       -3.36661530      -3.41298212      -3.41481443
C       -2.94063976      -3.88256103      -2.16853157
C       -2.13628349      -3.07332380      -1.36278996
S       -4.39831986      -4.43751461      -4.45163108
O       -5.16307300      -5.30838588      -3.57968749
O       -5.11202615      -3.51876517      -5.32832395
C       -3.28349513      -5.35603172      -5.37904924
C       -3.28894510      -5.27946152      -6.71695119
N       -2.43400989      -5.96200663      -7.55441745
C       -1.58219328      -6.74699339      -6.97893885
S       -0.39890774      -7.66346733      -7.85014107
C       -0.12488306      -6.59079866      -9.29094966
C        0.45277622      -5.24527151      -8.86585405
O        1.66221142      -5.09773666      -8.72165225
N       -0.52084709      -4.28366433      -8.64525017
C       -0.35053765      -2.97248222      -8.15242563
C        0.88868681      -2.40222839      -7.87433809
C        0.97551309      -1.10044578      -7.36969197
C       -0.17970646      -0.35488901      -7.14653468
C       -1.41902506      -0.91636362      -7.43442401
Br      -2.98866095       0.10761302      -7.17989192
C       -1.51258126      -2.21897858      -7.92814076
N       -1.50843382      -6.93662938      -5.63696657
H       -0.82558644      -7.57858023      -5.26059239
C       -2.33055291      -6.28463035      -4.76036685
O       -2.24730889      -6.47432725      -3.55527675
H       -2.00481906      -0.29650988      -3.33918500
H       -3.42488009      -1.72127741      -4.76596782
H       -3.21737424      -4.87646116      -1.82058019
H       -1.78800840      -3.45173027      -0.40471531
H       -3.99473808      -4.62836183      -7.23138911
H       -1.04805606      -6.46382389      -9.86489324
H        0.59918040      -7.07451257      -9.95524303
H       -1.48319737      -4.60588608      -8.72837066
H        1.81667898      -2.94202584      -8.03870189
H        1.95171153      -0.66946289      -7.15918698
H       -0.10046142       0.65795349      -6.76202085
H       -2.49204889      -2.63361711      -8.14781596
C       -1.79152861       1.79152861       1.79152861
C       -2.71933756       1.20194992       2.65017300
C       -3.51631157       2.00766666       3.46568599
C       -3.37100938       3.39776842       3.42563406
C       -2.47166318       3.98784006       2.53222913
C       -1.66802012       3.17933166       1.72504547
S       -4.40604037       4.42168075       4.45974442
O       -4.62396253       5.67106749       3.75611636
O       -5.55793319       3.59850954       4.80267255
C       -3.46113426       4.68993087       5.86751095
C       -3.91073075       4.30484803       7.06977903
N       -3.23151513       4.46064243       8.25827641
C       -2.08052527       5.04575144       8.18184880
S       -1.05534748       5.30360373       9.55356493
C       -1.51690967       3.89083820      10.59888350
C       -1.16955674       2.57231145       9.91648115
O       -0.04844118       2.08548987      10.02324644
N       -2.22036762       2.05227256       9.17712140
C       -2.21717669       0.91114249       8.34712631
C       -1.12605486       0.05851805       8.20330677
C       -1.19349500      -1.04457632       7.34570599
C       -2.35904970      -1.30782692       6.62990737
C       -3.45545954      -0.46554935       6.77990250
Br      -5.05724936      -0.84481671       5.84850719
C       -3.39051547       0.64304008       7.62614504
N       -1.54018399       5.51379763       7.02804816
H       -0.64158850       5.97437857       7.04879198
C       -2.16957852       5.38483744       5.82113416
O       -1.66415105       5.81753044       4.79523140
H       -2.83434854       0.12117782       2.68498758
H       -4.25543872       1.54396826       4.11271834
H       -2.37959055       5.07060808       2.46421697
H       -0.95343175       3.64230206       1.04872017
H       -4.87656103       3.81051902       7.16740897
H       -2.57722045       3.93278103      10.86677172
H       -0.94965287       3.94682898      11.53409335
H       -3.05390061       2.63511608       9.12843742
H       -0.19899646       0.21925946       8.74579284
H       -0.33237828      -1.70151972       7.24607977
H       -2.40338030      -2.17172974       5.97287823
H       -4.26142291       1.28385462       7.72820444
C        1.79152861      -1.79152861       1.79152861
C        2.49755589      -2.85143452       1.22247007
C        3.31377868      -3.64947970       2.02640584
C        3.42782636      -3.37407402       3.39251148
C        2.68480431      -2.33880869       3.96811936
C        1.87716232      -1.53525397       3.15998096
S        4.46082229      -4.41003115       4.41661210
O        3.86998937      -4.44032881       5.74082820
O        4.61181949      -5.66124791       3.68604788
C        5.96913683      -3.59155911       4.45788013
C        7.08006426      -4.19368532       4.01160823
N        8.33544720      -3.62658118       3.98840559
C        8.42433177      -2.42499744       4.45879631
S        9.90324024      -1.52431569       4.48496022
C       10.75378722      -2.21663994       3.03620421
C        9.97642279      -1.92446265       1.75746389
O       10.13577982      -0.86922995       1.15216772
N        9.09512945      -2.93844088       1.41619125
C        8.15792382      -2.95604160       0.36148007
C        8.02934076      -1.93874134      -0.58020242
C        7.06215520      -2.02003842      -1.58756896
C        6.21962231      -3.12653085      -1.66502302
C        6.35279346      -4.15064186      -0.73362263
Br       5.24497539      -5.67815035      -0.86218590
C        7.30905317      -4.07016661       0.28048082
N        7.37811615      -1.73026556       4.97364808
H        7.52755177      -0.79994642       5.33726086
C        6.11176566      -2.24369442       5.02009003
O        5.18548165      -1.59970883       5.49172242
H        2.41234006      -3.06795010       0.16022378
H        3.84018050      -4.48955516       1.58238966
H        2.73523188      -2.14148104       5.03770268
H        1.31941856      -0.71659597       3.60843945
H        7.03832473      -5.20566057       3.61050373
H       10.92622085      -3.29025525       3.16029709
H       11.73790697      -1.74401300       2.94865523
H        9.02936928      -3.70584374       2.08224109
H        8.66796641      -1.06040690      -0.56432455
H        6.97603505      -1.21712152      -2.31621823
H        5.47741168      -3.18326891      -2.45615180
H        7.39505725      -4.88450686       0.99391785
C       -0.00445707       0.01189536      -1.78238275
H       -0.66409135       0.67374010      -2.43557963
H        0.65740317      -0.63156657      -2.45157240
C       -0.90989263      -0.90692880      -0.91072765
C        0.90977584       0.90977584      -0.90977584
C       -0.00465871       1.77757030       0.00794375
H       -0.66225468       2.44313916      -0.64384735
H        0.64322798       2.43503045       0.67728295
C       -1.78241447       0.00034974      -0.00472694
H       -2.45427497      -0.65498947       0.64260836
H       -2.43311707       0.67328779      -0.65473579
C       -0.91132561       0.90220522       0.91563759
C       -0.01476271      -0.02253852       1.78660255
H       -0.67934791      -0.69751639       2.42135241
H        0.63392994       0.61504881       2.47327442
C        0.01484550      -1.77751727      -0.01636693
H        0.67870853      -2.42144646      -0.68295456
H       -0.62264859      -2.45592969       0.64226336
C        1.78714474       0.01002794       0.00389507
H        2.44202412       0.67113390       0.66197326
H        2.45385902      -0.65136977      -0.64189061
C        0.91606151      -0.90478549       0.90901405
