165
Properties=species:S:1:pos:R:3 pbc="F F F"
C        0.00000000       0.00000000       0.00000000
C        0.88200226       0.88200226      -0.88200226
C        2.14174722       1.27575513      -0.42589536
C        2.95153858       2.08031870      -1.23033155
C        2.49394691       2.46635509      -2.49612727
C        1.22412874       2.08772140      -2.94511263
C        0.41746612       1.28929218      -2.13300485
S        3.52391323       3.49480082      -3.52200012
O        2.79018134       3.76405367      -4.74705901
O        3.90776552       4.60713601      -2.66813748
C        4.91511517       2.57306618      -3.91416089
C        6.06892317       3.21307326      -4.15148316
N        7.27345998       2.60354617      -4.42286799
C        7.25599471       1.31331372      -4.47888455
S        8.67795431       0.37116552      -4.77167307
C        9.95379334       1.47533384      -4.09023137
C        9.82178625       1.57863607      -2.57581570
O       10.34518145       0.74756838      -1.83821255
N        9.03645588       2.64024024      -2.16233005
C        8.66982738       2.96905415      -0.83894679
C        9.26489426       2.42319912       0.29807113
C        8.80616560       2.77999032       1.57307350
C        7.74788539       3.67841353       1.71255298
Br       7.11335814       4.12460015       3.43497050
C        7.15614983       4.24658696       0.59169519
C        7.63343349       3.89779160      -0.66672673
F        7.06032541       4.45480244      -1.74317700
N        6.13988675       0.55893544      -4.30621503
H        6.19800225      -0.44475501      -4.40078700
C        4.91352941       1.11539663      -4.06220826
O        3.90733980       0.42500709      -3.98208963
H        2.49605305       0.96307433       0.55331490
H        3.92375115       2.39904276      -0.86293918
H        0.85683904       2.40144271      -3.92011427
H       -0.56673815       0.98976566      -2.48479083
H        6.11416356       4.30156767      -4.09680576
H        9.91809738       2.46331341      -4.55960317
H       10.93911387       1.05286411      -4.31418554
H        8.52970230       3.14571363      -2.89124722
H       10.09443049       1.72532504       0.22912179
H        9.28318081       2.34548340       2.44889477
H        6.33423429       4.95051154       0.67399439
C       -0.88200226      -0.88200226      -0.88200226
C       -0.37752692      -2.08461880      -1.38125200
C       -1.18165217      -2.89438227      -2.18615439
C       -2.49437078      -2.49572875      -2.46632974
C       -2.99330960      -1.28172527      -1.98192790
C       -2.18174411      -0.47422717      -1.18379186
S       -3.52016280      -3.52552628      -3.49502509
O       -4.80134956      -2.85615465      -3.64378981
O       -2.71714651      -3.78755985      -4.67833266
C       -3.76956047      -4.99121369      -2.64156807
C       -3.97780058      -6.11756078      -3.33811824
N       -4.13778138      -7.37103924      -2.79105351
C       -4.11287667      -7.43405038      -1.50126593
S       -4.26015291      -8.92529873      -0.63534126
C       -3.57524989     -10.08735061      -1.85675806
C       -2.08098118      -9.85373602      -2.04152083
O       -1.26233659     -10.37792135      -1.29070445
N       -1.78310893      -8.98194127      -3.07397597
C       -0.50741406      -8.51326402      -3.45715024
C        0.69533042      -9.06655192      -3.01880075
C        1.91556853      -8.50752224      -3.42112871
C        1.93455193      -7.39089382      -4.25740403
Br       3.58437331      -6.62305787      -4.76430322
C        0.74669069      -6.83857118      -4.71916111
C       -0.45643105      -7.41455869      -4.32696207
F       -1.59823607      -6.87864425      -4.78142452
N       -3.95955192      -6.35617017      -0.68931513
H       -3.98670945      -6.47984889       0.31252410
C       -3.82478306      -5.08584974      -1.18050149
O       -3.76116489      -4.11952358      -0.43374806
H        0.63889134      -2.39416605      -1.15053777
H       -0.77793011      -3.82064638      -2.58715661
H       -4.00637458      -0.95891470      -2.21310675
H       -2.57184964       0.46611565      -0.80208435
H       -3.98960260      -6.09432219      -4.42861219
H       -4.10756844     -10.02267404      -2.81077149
H       -3.71289077     -11.10829487      -1.48497789
H       -2.57147935      -8.49318029      -3.50200352
H        0.72027648      -9.93888720      -2.37202301
H        2.84401843      -8.95312206      -3.07066580
H        0.73511453      -5.97262142      -5.37324454
C       -0.88200226       0.88200226       0.88200226
C       -2.22596953       0.55079756       1.06663063
C       -3.03468473       1.35363781       1.87386629
C       -2.47862454       2.47340409       2.50440063
C       -1.13700859       2.81591290       2.30404128
C       -0.33643671       2.01283774       1.49048869
S       -3.50908100       3.50000383       3.53162934
O       -2.68682844       4.59378601       4.02067958
O       -4.67125929       3.80040351       2.71137620
C       -3.99016630       2.54245594       4.86972000
C       -5.16178241       2.80618776       5.46550943
N       -5.69988336       2.08924405       6.51074672
C       -4.98420284       1.10980304       6.95418710
S       -5.51012538       0.07376300       8.23690452
C       -7.31484825       0.17665934       8.02785096
C       -7.74546794      -0.50337731       6.73414741
O       -7.94998844      -1.71387364       6.69484758
N       -7.82178464       0.36096502       5.65627651
C       -8.12697382       0.03389156       4.31696295
C       -8.66561054      -1.18681262       3.91122433
C       -8.89788212      -1.43705733       2.55225763
C       -8.58622415      -0.46929136       1.59681315
Br      -8.86935590      -0.83081487      -0.23555325
C       -8.06716091       0.75933994       1.98454075
C       -7.85897315       1.00120346       3.33777520
F       -7.36270465       2.19160730       3.70399290
N       -3.76110760       0.77847070       6.46545892
H       -3.24460634       0.02088243       6.88854547
C       -3.16903443       1.47511132       5.44698855
O       -2.03700202       1.20836703       5.06906748
H       -2.64893387      -0.32659169       0.58347030
H       -4.08464229       1.10154175       1.99954905
H       -0.70571809       3.69600095       2.77667698
H        0.70782819       2.27555342       1.34009311
H       -5.79190136       3.61888892       5.10174671
H       -7.66203438       1.21384768       8.06513190
H       -7.79476888      -0.34889771       8.86029235
H       -7.46044174       1.30552714       5.80069426
H       -8.92606611      -1.96181346       4.62638109
H       -9.31999922      -2.39429285       2.25406307
H       -7.82013528       1.52960605       1.26101011
C        0.88200226      -0.88200226       0.88200226
C        0.37871365      -1.37838064       2.08630342
C        1.18145810      -2.18662396       2.89410678
C        2.47863693      -2.50439854       2.47339380
C        2.98938347      -1.99142736       1.27615194
C        2.18384310      -1.17871327       0.47720677
S        3.50473082      -3.53236349       3.50361986
O        4.79244820      -3.66532707       2.84351875
O        3.44452567      -2.91840449       4.82010885
C        2.76307432      -5.07680877       3.56245915
C        2.94384740      -5.83981668       4.64981551
N        2.36803322      -7.07304259       4.85879832
C        1.62486746      -7.52112148       3.90220405
S        0.78913307      -9.03363737       3.99802246
C        0.55310112      -9.16898946       5.79726798
C       -0.42862836      -8.11363939       6.29122700
O       -1.64010946      -8.31330945       6.25776239
N        0.18303897      -6.94542066       6.71056654
C       -0.44590694      -5.76375533       7.15997993
C       -1.79370895      -5.67637938       7.50735182
C       -2.34033110      -4.44886178       7.90455174
C       -1.54132695      -3.30597769       7.94909520
Br      -2.29676949      -1.64888509       8.45087218
C       -0.19258989      -3.37848811       7.62514338
C        0.34087365      -4.60655864       7.25051952
F        1.64470776      -4.66898408       6.94461300
N        1.40814965      -6.86255316       2.73433440
H        0.84299079      -7.29385137       2.01719208
C        1.97839455      -5.64792552       2.46481423
O        1.83101769      -5.10383019       1.37958865
H       -0.63347037      -1.13742148       2.40186137
H        0.79106068      -2.55538657       3.83928584
H        4.00346948      -2.22013575       0.95479078
H        2.57872827      -0.78544118      -0.45635111
H        3.55539936      -5.47918740       5.47795022
H        1.50659578      -9.10394743       6.33047076
H        0.13005451     -10.15381907       6.02228993
H        1.18361988      -6.85999490       6.52304837
H       -2.44514802      -6.54543099       7.49035076
H       -3.39326889      -4.39960317       8.17343515
H        0.45043609      -2.50474893       7.65556641
