153
Properties=species:S:1:pos:R:3 pbc="F F F"
C        0.00000000       0.00000000       0.00000000
O        3.67677118      -1.09490112      -6.59727943
C        4.50582805      -1.62670695      -5.86878490
C        5.19840525      -0.85989294      -4.75917497
C        4.44902720       0.42379072      -4.42436003
N        5.06905412       1.03450045      -3.22496334
S        4.30939173       2.42147079      -2.61749548
O        5.04488512       2.82391257      -1.44068205
O        4.11509246       3.32225849      -3.73248828
C        2.67787381       2.00246031      -2.06847941
C        1.43225937       2.50813573      -2.39707754
C        0.37780420       1.84879634      -1.69884734
C        0.87191464       0.87191464      -0.87191464
S        2.55991361       0.73389585      -0.92424426
N        4.95055274      -2.93698040      -5.93704248
C        4.53042964      -3.94317388      -6.83106894
C        3.63392653      -3.73449309      -7.87655037
C        3.27105265      -4.79206484      -8.71653210
C        3.79783335      -6.06967489      -8.51512701
C        4.69753861      -6.30703949      -7.46754021
C        5.28846858      -7.66406320      -7.20465081
C        5.05914853      -5.22871146      -6.63866011
H        6.21817762      -0.62636312      -5.08827557
H        5.26969219      -1.49475025      -3.86792586
H        3.39765277       0.19512320      -4.21921479
H        4.50070293       1.12087486      -5.26737009
H        6.05862622       1.25784283      -3.34632715
H        1.29615420       3.31576868      -3.10787264
H       -0.67378770       2.08732142      -1.80505436
H        5.62654585      -3.22547224      -5.24033860
H        3.19993825      -2.75958313      -8.07520031
H        2.57245351      -4.60295001      -9.52855899
H        5.92788519      -7.65757984      -6.31511440
H        5.90631476      -7.98216378      -8.05023678
H        4.49782985      -8.39989982      -7.02610677
H        5.75953712      -5.40700016      -5.82517524
C        3.38334364      -7.11272203      -9.41726388
C        3.03620850      -7.98627402     -10.17280351
Br       2.47492034      -9.39873369     -11.39444718
O       -6.97629613       0.78888566      -2.99173902
C       -7.32791697       0.44861382      -1.86860284
C       -6.92674660      -0.89018938      -1.28075130
C       -5.75589596      -1.49886361      -2.04241838
N       -5.29937879      -2.70936912      -1.31977001
S       -3.92527456      -3.47736256      -1.94572089
O       -3.63539281      -4.59590684      -1.07818009
O       -4.14835562      -3.65802690      -3.36345671
C       -2.53801528      -2.38156032      -1.82923795
C       -1.65154397      -1.90619709      -2.77973157
C       -0.67874575      -1.02517338      -2.22152874
C       -0.87191464      -0.87191464      -0.87191464
S       -2.18883702      -1.75491928      -0.27429742
N       -8.12542982       1.17009161      -0.99527660
C       -8.67750192       2.45237668      -1.19319947
C       -8.57048903       3.17421182      -2.37970660
C       -9.14943410       4.44254276      -2.48862857
C       -9.83651725       5.00279356      -1.40956177
C       -9.95405125       4.29944769      -0.20343577
C      -10.67786812       4.85981160       0.98900034
C       -9.37395031       3.02025708      -0.11540395
H       -7.79481809      -1.55888058      -1.32639140
H       -6.65871814      -0.75851612      -0.22563353
H       -4.93655506      -0.77429877      -2.10113693
H       -6.06523991      -1.76506943      -3.05863854
H       -6.02533373      -3.42085420      -1.21660828
H       -1.70813537      -2.18563050      -3.82602965
H        0.10938762      -0.54161423      -2.78636146
H       -8.30354231       0.75226277      -0.09013268
H       -8.04934484       2.78045865      -3.24666925
H       -9.05576373       4.98468163      -3.42698040
H      -10.61783535       4.18359273       1.84882287
H      -11.73812581       5.00458772       0.75915033
H      -10.23244010       5.81112849       1.29727481
H       -9.46451640       2.46862130       0.81818290
C      -10.40964125       6.31148341      -1.58972764
C      -10.88963260       7.40751117      -1.74061655
Br     -11.66573802       9.17969535      -1.98459116
O       -3.49170815      -1.02125218       6.70869352
C       -4.32464333      -1.59008748       6.01335014
C       -5.06173724      -0.86706824       4.90301828
C       -4.35189045       0.42550934       4.51977816
N       -5.01481415       0.99205396       3.32164981
S       -4.30365872       2.38148326       2.66321602
O       -5.07639099       2.73769136       1.49539738
O       -4.10491296       3.31342640       3.75149987
C       -2.67592021       1.98805479       2.08483854
C       -1.43551103       2.53093937       2.37102223
C       -0.38220511       1.88002064       1.66322212
C       -0.87191464       0.87191464       0.87191464
S       -2.55435077       0.69523771       0.96846524
N       -4.73568442      -2.90849007       6.12342046
C       -4.27018594      -3.88244229       7.03058104
C       -3.35448574      -3.62725187       8.04874994
C       -2.94623714      -4.65522172       8.90450449
C       -3.44647137      -5.94947121       8.74628531
C       -4.36472541      -6.23345592       7.72676984
C       -4.92860131      -7.61008646       7.51054134
C       -4.77195157      -5.18444228       6.88158789
H       -6.07879177      -0.64985331       5.25115161
H       -5.13869448      -1.52488665       4.02905997
H       -3.30043217       0.21691222       4.29464637
H       -4.40047911       1.14143326       5.34703550
H       -6.00636214       1.19475984       3.46167423
H       -1.30224440       3.35858934       3.05896179
H        0.66550790       2.14591106       1.73818492
H       -5.42079746      -3.22975184       5.45036659
H       -2.93970710      -2.63779439       8.21364272
H       -2.23338517      -4.42994423       9.69462155
H       -5.58889049      -7.64035737       6.63688663
H       -5.51832758      -7.92211930       8.37817948
H       -4.12478549      -8.33109469       7.33034600
H       -5.48688934      -5.39897767       6.08980054
C       -2.98551610      -6.96019249       9.66256187
C       -2.59946606      -7.80667156      10.42994349
Br      -1.97525579      -9.17535662      11.67073467
O        7.33133479       0.25631959       2.10413429
C        7.50558958      -0.24317133       0.99914509
C        6.89413710      -1.57907816       0.62447203
C        5.76536913      -1.95575346       1.57605536
N        5.09681717      -3.17289781       1.05880293
S        3.73386676      -3.69680830       1.91768294
O        3.22211732      -4.85901619       1.22834622
O        4.10619328      -3.74917740       3.31446856
C        2.46905913      -2.46008078       1.81967363
C        1.76069811      -1.78113875       2.79563577
C        0.82820769      -0.85418153       2.24305865
C        0.87191464      -0.87191464       0.87191464
S        2.00379286      -1.96716730       0.24709356
N        8.26460703       0.27798116      -0.03601105
C        8.97164804       1.49778598      -0.05553737
C        9.08759326       2.35100316       1.03939370
C        9.80886860       3.54418456       0.93083587
C       10.41661322       3.89742562      -0.27590212
C       10.31066831       3.05906277      -1.39356621
C       10.94094381       3.39573895      -2.71614867
C        9.58961083       1.85755867      -1.26295498
H        7.68411914      -2.33911686       0.65685407
H        6.51608626      -1.53049625      -0.40371471
H        5.04213685      -1.13522565       1.63462825
H        6.16496732      -2.14628588       2.57769468
H        5.72392845      -3.97400383       0.96486393
H        1.91310507      -1.95087160       3.85581885
H        0.17106415      -0.22065839       2.82686554
H        8.28568324      -0.25351573      -0.89778676
H        8.63586428       2.11908313       1.99877428
H        9.88854636       4.19170206       1.80121819
H       10.70464519       2.64299966      -3.47622578
H       12.03061698       3.43499541      -2.62123380
H       10.56669052       4.35515292      -3.08750079
H        9.50642255       1.20155984      -2.12715051
C       11.14512518       5.13882107      -0.31841863
C       11.75525396       6.17848976      -0.35402621
Br      12.74178058       7.85954610      -0.41160065
