145
Properties=species:S:1:pos:R:3 pbc="F F F"
C        0.00000000       0.00000000       0.00000000
O        3.67677118      -1.09490112      -6.59727943
C        4.50582805      -1.62670695      -5.86878490
C        5.19840525      -0.85989294      -4.75917497
C        4.44902720       0.42379072      -4.42436003
N        5.06905412       1.03450045      -3.22496334
S        4.30939173       2.42147079      -2.61749548
O        5.04488512       2.82391257      -1.44068205
O        4.11509246       3.32225849      -3.73248828
C        2.67787381       2.00246031      -2.06847941
C        1.43225937       2.50813573      -2.39707754
C        0.37780420       1.84879634      -1.69884734
C        0.87191464       0.87191464      -0.87191464
S        2.55991361       0.73389585      -0.92424426
N        4.95055274      -2.93698040      -5.93704248
C        4.53042964      -3.94317388      -6.83106894
C        3.63392653      -3.73449309      -7.87655037
C        3.27105265      -4.79206484      -8.71653210
C        3.79783335      -6.06967489      -8.51512701
Br       3.25127448      -7.44506889      -9.70471239
C        4.69753861      -6.30703949      -7.46754021
C        5.28846858      -7.66406320      -7.20465081
C        5.05914853      -5.22871146      -6.63866011
H        6.21817762      -0.62636312      -5.08827557
H        5.26969219      -1.49475025      -3.86792586
H        3.39765277       0.19512320      -4.21921479
H        4.50070293       1.12087486      -5.26737009
H        6.05862622       1.25784283      -3.34632715
H        1.29615420       3.31576868      -3.10787264
H       -0.67378770       2.08732142      -1.80505436
H        5.62654585      -3.22547224      -5.24033860
H        3.19993825      -2.75958313      -8.07520031
H        2.57245351      -4.60295001      -9.52855899
H        5.92788519      -7.65757984      -6.31511440
H        5.90631476      -7.98216378      -8.05023678
H        4.49782985      -8.39989982      -7.02610677
H        5.75953712      -5.40700016      -5.82517524
O       -6.91014744       0.85512555      -3.12412760
C       -7.28649641       0.54020220      -2.00161178
C       -6.91839191      -0.79488622      -1.38440914
C       -5.74547285      -1.43626424      -2.11544087
N       -5.32211019      -2.64171038      -1.36469735
S       -3.95102896      -3.44346323      -1.95386581
O       -3.69512110      -4.55166799      -1.06269065
O       -4.15319133      -3.64467660      -3.37197130
C       -2.54730399      -2.36942156      -1.83208799
C       -1.63685534      -1.92551718      -2.77510011
C       -0.65862816      -1.05159390      -2.21522582
C       -0.87191464      -0.87191464      -0.87191464
S       -2.21373325      -1.72213352      -0.28218695
N       -8.08613406       1.28996110      -1.15444186
C       -8.61265775       2.57780110      -1.38346805
C       -8.47321543       3.27722134      -2.57998971
C       -9.02834827       4.55309538      -2.72026702
C       -9.72383687       5.14334467      -1.66279326
Br     -10.44567597       6.87720974      -1.94245175
C       -9.87381096       4.46292339      -0.44715176
C      -10.60793659       5.05585543       0.72302497
C       -9.31735624       3.17581420      -0.32755514
H       -7.79693496      -1.44949737      -1.43365774
H       -6.66600919      -0.64964289      -0.32721571
H       -4.91292210      -0.72676612      -2.17230255
H       -6.04212911      -1.71463413      -3.13218463
H       -6.06182836      -3.33894675      -1.26202110
H       -1.68055158      -2.22189937      -3.81734457
H        0.14713440      -0.59120438      -2.77451810
H       -8.28667429       0.89082363      -0.24556155
H       -7.94433993       2.85987181      -3.43108732
H       -8.90952745       5.07736296      -3.66589800
H      -10.57407669       4.39359930       1.59505765
H      -11.66151296       5.21455648       0.47256872
H      -10.15149422       6.00466758       1.02278984
H       -9.43315640       2.64191808       0.61352611
O       -3.83554111      -1.15266308       6.49627146
C       -4.65990314      -1.65199080       5.73999366
C       -5.31328340      -0.84830372       4.63270761
C       -4.53093958       0.42601984       4.34021854
N       -5.11312021       1.07399139       3.14140631
S       -4.31268126       2.45692572       2.57875102
O       -5.01501591       2.89867002       1.39579380
O       -4.12332921       3.33043296       3.71607707
C       -2.67896474       2.01522866       2.05462014
C       -1.43039836       2.48791756       2.41915671
C       -0.37529937       1.82111424       1.72903427
C       -0.87191464       0.87191464       0.87191464
S       -2.56311098       0.76817287       0.88676987
N       -5.13269590      -2.95380337       5.77172228
C       -4.75204800      -3.98665676       6.65293345
C       -3.87351249      -3.81821692       7.72068824
C       -3.55001155      -4.90012300       8.54563136
C       -4.09851871      -6.16204858       8.30681534
Br      -3.60522861      -7.57264005       9.47832942
C       -4.98079836      -6.35904988       7.23629085
C       -5.59376813      -7.69775493       6.93304299
C       -5.30284294      -5.25665017       6.42290442
H       -6.33471703      -0.60029370       4.94566674
H       -5.37890774      -1.46314795       3.72710801
H       -3.48040927       0.17967102       4.15191046
H       -4.58594248       1.10662275       5.19638265
H       -6.10023217       1.31544096       3.24712308
H       -1.29267289       3.27780364       3.14931899
H        0.67850624       2.03537757       1.86171675
H       -5.79974180      -3.21377228       5.05544269
H       -3.42389906      -2.85686543       7.94852181
H       -2.86481529      -4.74232270       9.37556990
H       -6.21418137      -7.65969086       6.03092924
H       -6.23554162      -8.02011827       7.75896441
H       -4.81480370      -8.44614938       6.75538249
H       -5.98957571      -5.40356171       5.59169820
O        7.06698561       0.68584901       2.79801290
C        7.38162231       0.30922519       1.67550888
C        6.93285382      -1.03309452       1.13173894
C        5.76697781      -1.59303365       1.93716650
N        5.26265285      -2.80905914       1.25680592
S        3.88629427      -3.52642711       1.93563661
O        3.54710615      -4.65833002       1.10404356
O        4.14060696      -3.67767601       3.35155627
C        2.52396183      -2.39912539       1.82572632
C        1.67377492      -1.87823459       2.78546311
C        0.70919086      -0.98693613       2.22932088
C        0.87191464      -0.87191464       0.87191464
S        2.15115461      -1.80237287       0.26452624
N        8.17435179       0.98857920       0.76484223
C        8.76268246       2.26099339       0.91663562
C        8.70350605       3.01432381       2.08680157
C        9.31610020       4.26992014       2.14933984
C        9.98929680       4.78586751       1.03985618
Br      10.79309653       6.49722992       1.21505138
C       10.05894771       4.05026549      -0.15064288
C       10.76599333       4.56260379      -1.37433336
C        9.44545863       2.78436031      -0.19200113
H        7.78505797      -1.72217851       1.17285360
H        6.64157694      -0.92073386       0.08055700
H        4.96748780      -0.84677025       1.99773271
H        6.09524608      -1.84184561       2.95185619
H        5.96801446      -3.54098655       1.15379520
H        1.74988215      -2.13313815       3.83677522
H       -0.05226219      -0.46984379       2.80100648
H        8.31918506       0.54420323      -0.13356961
H        8.19488889       2.65535016       2.97601671
H        9.25955910       4.83721342       3.07571681
H       10.66760697       3.86713312      -2.21505410
H       11.83496613       4.68616392      -1.17441446
H       10.33649835       5.51698556      -1.69547599
H        9.49878373       2.20777190      -1.11329962
