166
Properties=species:S:1:pos:R:3 pbc="F F F"
O        4.58667520      -0.18499709      -7.50718346
C        5.41573207      -0.71680293      -6.77868892
C        6.10830928       0.05001108      -5.66907900
C        5.35893123       1.33369475      -5.33426406
N        5.97895815       1.94440448      -4.13486736
S        5.21929575       3.33137481      -3.52739951
O        5.95478914       3.73381659      -2.35058607
O        5.02499649       4.23216252      -4.64239231
C        3.58777784       2.91236434      -2.97838344
C        2.34216339       3.41803975      -3.30698156
C        1.28770822       2.75870036      -2.60875136
C        1.78181867       1.78181867      -1.78181867
S        3.46981763       1.64379987      -1.83414829
N        5.86045676      -2.02707638      -6.84694650
C        5.44033366      -3.03326986      -7.74097297
C        4.54383055      -2.82458907      -8.78645439
C        4.18095667      -3.88216082      -9.62643612
C        4.70773738      -5.15977087      -9.42503103
Br       4.16117851      -6.53516487     -10.61461642
C        5.60744263      -5.39713546      -8.37744423
C        6.19837260      -6.75415918      -8.11455484
C        5.96905256      -4.31880743      -7.54856413
H        7.12808164       0.28354091      -5.99817960
H        6.17959621      -0.58484623      -4.77782988
H        4.30755680       1.10502722      -5.12911881
H        5.41060696       2.03077888      -6.17727411
H        6.96853025       2.16774686      -4.25623118
H        2.20605823       4.22567271      -4.01777667
H        0.23611632       2.99722545      -2.71495838
H        6.53644987      -2.31556821      -6.15024262
H        4.10984228      -1.84967910      -8.98510433
H        3.48235754      -3.69304598     -10.43846301
H        6.83778921      -6.74767581      -7.22501842
H        6.81621878      -7.07225976      -8.96014081
H        5.40773387      -7.48999579      -7.93601080
H        6.66944115      -4.49709613      -6.73507927
O       -6.52310075      -5.88471088       0.49895007
C       -5.58666369      -6.63547048       0.74451610
C       -4.54580136      -6.97825726      -0.30334073
C       -4.57981256      -5.98706409      -1.46001338
N       -3.43401164      -6.26720129      -2.35701705
S       -3.22465856      -5.19864586      -3.65476565
O       -2.04352825      -5.62771363      -4.36794993
O       -4.50528155      -5.07784578      -4.31642398
C       -2.87020131      -3.57961917      -3.02870513
C       -3.47948584      -2.35405338      -3.23364549
C       -2.84455021      -1.30432041      -2.50628933
C       -1.78181867      -1.78181867      -1.78181867
S       -1.54131109      -3.44998576      -1.95646894
N       -5.33710570      -7.28544657       1.94222539
C       -6.08120130      -7.20400930       3.13717383
C       -7.27496181      -6.49812187       3.26738780
C       -7.94801771      -6.47012928       4.49291501
C       -7.43022887      -7.14393751       5.60116884
Br      -8.41150028      -7.05339998       7.22427020
C       -6.22854209      -7.85704372       5.49783442
C       -5.62615570      -8.59399812       6.66138556
C       -5.57034304      -7.88263081       4.25416460
H       -4.74839877      -7.99204411      -0.66935926
H       -3.55134649      -6.97996106       0.15872769
H       -4.50328004      -4.96512821      -1.07329458
H       -5.51984098      -6.08575022      -2.01306875
H       -3.43802737      -7.21433308      -2.74014784
H       -4.34158074      -2.22848675      -3.87944011
H       -3.15758649      -0.26714663      -2.52356703
H       -4.50120344      -7.85551424       1.98559339
H       -7.71870088      -5.96135054       2.43478391
H       -8.88064390      -5.91540167       4.56827100
H       -4.66437860      -9.04605363       6.39530041
H       -6.28921490      -9.40170147       6.98681654
H       -5.43927455      -7.90958381       7.49510949
H       -4.63805310      -8.43711805       4.16774687
O       -6.31528681       6.10607204      -0.51249729
C       -5.34823974       6.83339425      -0.70401593
C       -4.33167106       7.10911797       0.38661033
C       -4.43433788       6.08368532       1.50886683
N       -3.31001140       6.29815941       2.45005917
S       -3.17657218       5.18311170       3.71838619
O       -2.00630607       5.55099539       4.48189035
O       -4.48115655       5.08319714       4.33519763
C       -2.85304742       3.57391292       3.05156527
C       -3.50688119       2.36292947       3.19737404
C       -2.88198379       1.31652488       2.45665128
C       -1.78181867       1.78181867       1.78181867
S       -1.49479241       3.43498816       2.01798523
N       -5.03963926       7.51225313      -1.87156551
C       -5.74675637       7.49260465      -3.09132425
C       -6.95725899       6.83027053      -3.28183364
C       -7.59073679       6.86266790      -4.52817271
C       -7.01633326       7.55381831      -5.59715402
Br      -7.94677565       7.54623290      -7.25237850
C       -5.79681328       8.22395147      -5.43301334
C       -5.13411932       8.97717627      -6.55252733
C       -5.17884153       8.18906294      -4.16909522
H       -4.51407539       8.11694010       0.77878666
H       -3.32318300       7.09307128      -0.04367441
H       -4.37745409       5.07246416       1.09178458
H       -5.38825241       6.19539340       2.03501414
H       -3.29668716       7.23241231       2.86340881
H       -4.39299982       2.24516979       3.81133799
H       -3.22786044       0.29002567       2.43041404
H       -4.18526537       8.05597519      -1.87011628
H       -7.44443579       6.28227797      -2.48144625
H       -8.53740086       6.34114071      -4.65076701
H       -4.16775070       9.38919539      -6.24181427
H       -5.76055382       9.81580105      -6.87225504
H       -4.94188479       8.31360080      -7.40173672
H       -4.23287988       8.71001324      -4.03546884
O        7.73511880       0.02114778       4.19489055
C        8.14091719      -0.26242284       3.07427804
C        7.81357740      -1.59156485       2.42225710
C        6.63959913      -2.27202335       3.11526756
N        6.25704918      -3.46991615       2.33126466
S        4.89126034      -4.31177414       2.87503560
O        4.67693716      -5.40609355       1.95616109
O        5.06846899      -4.53844399       4.29263833
C        3.46815006      -3.26442875       2.74594680
C        2.52946199      -2.85912667       3.67859605
C        1.54483979      -1.99391691       3.11640325
C        1.78181867      -1.78181867       1.78181867
S        3.15295336      -2.59181127       1.20300116
N        8.94188689       0.52114696       2.25958695
C        9.43652684       1.81443591       2.52594585
C        9.25796627       2.48564691       3.73337652
C        9.78327346       3.76941968       3.91137821
C       10.48779066       4.39581548       2.88102236
Br      11.16728624       6.13788304       3.21122686
C       10.67687279       3.74421152       1.65509013
C       11.42226533       4.37644067       0.51294359
C       10.15005543       2.44874836       1.49750219
H        8.70443770      -2.22891068       2.47645376
H        7.57994094      -1.42942659       1.36321234
H        5.79138642      -1.58109245       3.16922396
H        6.92110660      -2.56547631       4.13207704
H        7.01315193      -4.14953502       2.22982133
H        2.55797227      -3.17630519       4.71523014
H        0.71831619      -1.56195682       3.66802713
H        9.16933433       0.14532077       1.34711073
H        8.72060281       2.03981369       4.56447838
H        9.63413710       4.27122857       4.86486603
H       11.42016618       3.73203085      -0.37300351
H       12.46693097       4.55143459       0.78860345
H       10.95230228       5.32176126       0.22320786
H       10.29628070       1.93715789       0.54830146
C       -0.00445707       0.01189536      -1.78238275
H       -0.66409135       0.67374010      -2.43557963
H        0.65740317      -0.63156657      -2.45157240
C       -0.90989263      -0.90692880      -0.91072765
C        0.90977584       0.90977584      -0.90977584
C       -0.00465871       1.77757030       0.00794375
H       -0.66225468       2.44313916      -0.64384735
H        0.64322798       2.43503045       0.67728295
C       -1.78241447       0.00034974      -0.00472694
H       -2.45427497      -0.65498947       0.64260836
H       -2.43311707       0.67328779      -0.65473579
C       -0.91132561       0.90220522       0.91563759
C       -0.01476271      -0.02253852       1.78660255
H       -0.67934791      -0.69751639       2.42135241
H        0.63392994       0.61504881       2.47327442
C        0.01484550      -1.77751727      -0.01636693
H        0.67870853      -2.42144646      -0.68295456
H       -0.62264859      -2.45592969       0.64226336
C        1.78714474       0.01002794       0.00389507
H        2.44202412       0.67113390       0.66197326
H        2.45385902      -0.65136977      -0.64189061
C        0.91606151      -0.90478549       0.90901405
