154
Properties=species:S:1:pos:R:3 pbc="F F F"
O        9.12372207       2.43258640      -4.20754996
C        9.05451157       2.19448925      -3.00759863
C        8.07837431       2.94116803      -2.11494271
C        6.90977963       3.46041672      -2.94393397
N        5.97265432       4.20598563      -2.07391345
S        4.53523013       4.72082365      -2.81474622
O        4.01156401       5.78260597      -1.98833524
O        4.79257862       4.90989779      -4.22532837
C        3.34592169       3.40709695      -2.72858326
C        2.65570501       2.70905596      -3.70497609
C        1.73834191       1.76538453      -3.15270792
C        1.78193273       1.78193273      -1.78193273
S        2.91020995       2.88033627      -1.15691451
N        9.82585173       1.28230797      -2.30729655
C       10.77246336       0.38100009      -2.84107793
C       11.12425662       0.32440653      -4.19254031
C       12.05090532      -0.61952487      -4.65002607
C       12.63063924      -1.51290920      -3.75504227
Br      13.86953367      -2.79704855      -4.37621458
C       12.29809811      -1.46566184      -2.40443118
C       11.37409052      -0.51850774      -1.94995675
H        8.61755767       3.77178010      -1.64456285
H        7.71383274       2.28217703      -1.31837600
H        6.38900653       2.61887407      -3.41468464
H        7.27739893       4.13287260      -3.72603857
H        6.38820961       5.01638742      -1.61077739
H        2.79284025       2.89271645      -4.76473177
H        1.08416266       1.12874681      -3.73648761
H        9.66844448       1.21659612      -1.30907131
H       10.69660536       1.00079771      -4.92599742
H       12.30510292      -0.64556107      -5.70668124
H       12.74621218      -2.16103935      -1.69970273
H       11.12676622      -0.50569020      -0.89178369
O       -8.88360138      -1.97795281      -4.90230424
C       -8.90518894      -1.62109037      -3.73032014
C       -8.10463850      -2.35881410      -2.67103244
C       -6.92373102      -3.07347713      -3.31692217
N       -6.15949205      -3.80876132      -2.28430002
S       -4.72055317      -4.53552974      -2.81471709
O       -4.39499521      -5.54861614      -1.83889387
O       -4.85966255      -4.84822404      -4.21991819
C       -3.41184116      -3.34066655      -2.72909420
C       -2.56043195      -2.82033537      -3.68896974
C       -1.60513601      -1.91584870      -3.13544965
C       -1.78193273      -1.78193273      -1.78193273
S       -3.07572538      -2.69377804      -1.17795731
N       -9.63869703      -0.56950552      -3.20725370
C      -10.42807765       0.35665324      -3.92311698
C      -10.64015804       0.30246930      -5.30351471
C      -11.41258079       1.27702075      -5.94584648
C      -11.97720351       2.31231673      -5.20788552
Br     -13.00662702       3.63614869      -6.07822136
C      -11.78309771       2.37751170      -3.83128145
C      -11.01334245       1.39970412      -3.19190121
H       -8.77202122      -3.07880611      -2.18307329
H       -7.75028304      -1.65682869      -1.90727404
H       -6.27336713      -2.34093591      -3.80826219
H       -7.28395894      -3.78695037      -4.06540078
H       -6.70167676      -4.52141984      -1.79227782
H       -2.61375278      -3.10184745      -4.73468825
H       -0.83371185      -1.41097198      -3.70471326
H       -9.57196498      -0.41322835      -2.20891859
H      -10.21845655      -0.48623329      -5.91871065
H      -11.55969958       1.21462640      -7.02114991
H      -12.22026217       3.18391084      -3.24852425
H      -10.87176292       1.47600326      -2.11710006
O       -1.42710811       8.18213433       6.15461598
C       -0.47075634       7.44030886       6.34553425
C       -0.66253634       5.94453243       6.52741627
C       -1.95678646       5.50169371       5.85565016
N       -2.15044560       4.04772832       6.05437948
S       -3.47065493       3.36450017       5.23564490
O       -3.76052673       2.11797262       5.90400587
O       -4.47776204       4.38790182       5.06214093
C       -2.96044155       2.92764786       3.59351250
C       -3.41230140       3.31426451       2.34317115
C       -2.72927420       2.64098367       1.28617649
C       -1.78193273       1.78193273       1.78193273
S       -1.68416929       1.79005034       3.47324110
N        0.85595789       7.82345650       6.44795765
C        1.38458951       9.11906363       6.26006726
C        0.60795813      10.25113669       5.99802491
C        1.20993231      11.49801381       5.79332502
C        2.59475225      11.61753913       5.84998542
Br       3.40727852      13.29807920       5.55789902
C        3.38323004      10.50237688       6.11772062
C        2.77798506       9.25818591       6.32533869
H       -0.69468505       5.73598875       7.60322681
H        0.18915635       5.39953391       6.10400821
H       -1.91171961       5.72678639       4.78405923
H       -2.80617942       6.03500707       6.29512361
H       -2.21570368       3.76548815       7.03418260
H       -4.21446039       4.03059736       2.20523073
H       -2.93848303       2.77890382       0.23201024
H        1.53299322       7.09357076       6.63353436
H       -0.47519727      10.20440285       5.94380038
H        0.58403416      12.36272026       5.58753699
H        4.46566059      10.58803220       6.16250397
H        3.41573599       8.40163184       6.52696387
O        1.91838599      -5.00772978       8.83774266
C        1.54327227      -3.84175016       8.87157702
C        2.27666275      -2.75924472       8.09857758
C        3.01895376      -3.37602490       6.91915166
N        3.74976550      -2.32077366       6.18201424
S        4.50628950      -2.81796019       4.74655031
O        5.50907322      -1.82203118       4.45140082
O        4.83839700      -4.22024007       4.86916772
C        3.33019266      -2.73033003       3.42107922
C        2.83761496      -3.68477430       2.54734779
C        1.93928978      -3.13039189       1.58675268
C        1.78193273      -1.78193273       1.78193273
S        2.66470757      -1.18417848       3.09857468
N        0.47279525      -3.34598884       9.59667217
C       -0.45409414      -4.08782959      10.36080593
C       -0.38192222      -5.47034498      10.55278070
C       -1.35806624      -6.13914307      11.30032969
C       -2.41300439      -5.42569578      11.86008091
Br      -3.73873346      -6.33167923      12.85575393
C       -2.49639850      -4.04741598      11.68584997
C       -1.51699412      -3.38156045      10.94097320
H        2.97889063      -2.27075815       8.78425184
H        1.56846769      -2.00084203       7.74507605
H        2.30397400      -3.86834295       6.25024828
H        3.73831035      -4.11906774       7.27893201
H        4.44649373      -1.82641229       6.74246841
H        3.13432221      -4.72680891       2.58915735
H        1.45495081      -3.69531019       0.79913609
H        0.30222477      -2.34922543       9.54266171
H        0.42243085      -6.06698335      10.13398629
H       -1.28139058      -7.21551272      11.43210095
H       -3.31817957      -3.48371419      12.11934096
H       -1.60764744      -2.30598849      10.81451867
C       -0.00445707       0.01189536      -1.78238275
H       -0.66409135       0.67374010      -2.43557963
H        0.65740317      -0.63156657      -2.45157240
C       -0.90989263      -0.90692880      -0.91072765
C        0.90977584       0.90977584      -0.90977584
C       -0.00465871       1.77757030       0.00794375
H       -0.66225468       2.44313916      -0.64384735
H        0.64322798       2.43503045       0.67728295
C       -1.78241447       0.00034974      -0.00472694
H       -2.45427497      -0.65498947       0.64260836
H       -2.43311707       0.67328779      -0.65473579
C       -0.91132561       0.90220522       0.91563759
C       -0.01476271      -0.02253852       1.78660255
H       -0.67934791      -0.69751639       2.42135241
H        0.63392994       0.61504881       2.47327442
C        0.01484550      -1.77751727      -0.01636693
H        0.67870853      -2.42144646      -0.68295456
H       -0.62264859      -2.45592969       0.64226336
C        1.78714474       0.01002794       0.00389507
H        2.44202412       0.67113390       0.66197326
H        2.45385902      -0.65136977      -0.64189061
C        0.91606151      -0.90478549       0.90901405
