166
Properties=species:S:1:pos:R:3 pbc="F F F"
O        5.16756620       3.16003069      -8.50948873
C        6.13306263       3.65116426      -7.93778831
C        5.98850769       4.34890959      -6.59806622
C        4.53709943       4.34408337      -6.12745042
N        4.44710614       5.06555281      -4.83565097
S        2.92719959       5.04481709      -4.07608322
O        2.99201666       6.07502091      -3.06279984
O        1.91577852       5.03060318      -5.10533234
C        2.77486771       3.51986692      -3.18796449
C        3.65111352       2.47678584      -2.94574791
C        3.07088162       1.46145764      -2.12592949
C        1.78190757       1.78190757      -1.78190757
S        1.26162823       3.25886105      -2.42499275
N        7.44625655       3.65958389      -8.38296262
C        7.95470230       3.13931356      -9.59898469
C        7.13356645       2.52644735     -10.55492371
C        7.65992223       2.03405573     -11.75348544
C        9.01863136       2.15120959     -12.00949952
Br       9.73211553       1.49423983     -13.63117151
C        9.85708135       2.75174228     -11.07447113
C        9.33977989       3.24956416      -9.86254348
C       10.30225277       3.87725686      -8.88923459
H        6.34609654       5.38076253      -6.70179216
H        6.62527783       3.84151276      -5.86386915
H        4.18502168       3.31426823      -6.00504981
H        3.90702434       4.84950360      -6.86797130
H        4.73647555       6.04455932      -4.89123752
H        4.66329612       2.45377172      -3.33029114
H        3.57978302       0.55951612      -1.80767193
H        8.12214273       4.09433506      -7.76941460
H        6.06453465       2.41291186     -10.40491408
H        6.99460851       1.56516536     -12.47393044
H       10.92091489       2.83462379     -11.28762840
H       10.31235700       3.31322321      -7.95097848
H       10.02258348       4.91706201      -8.69243215
H       11.32614877       3.88360791      -9.27859093
O       -7.18186306      -7.16321767      -2.49200488
C       -6.62526165      -7.60882325      -3.48793031
C       -5.81331957      -6.71515457      -4.40700936
C       -5.82047901      -5.26969365      -3.91846056
N       -5.04425826      -4.43653969      -4.86751198
S       -4.81602506      -2.81367195      -4.41840289
O       -4.36642471      -2.14420347      -5.61920923
O       -5.98180721      -2.38777028      -3.68213655
C       -3.44702473      -2.73872309      -3.29695129
C       -2.54505653      -3.68498975      -2.84360100
C       -1.57370493      -3.12657923      -1.95798459
C       -1.78190757      -1.78190757      -1.78190757
S       -3.11159401      -1.18855366      -2.64533436
N       -6.63714737      -8.92373706      -3.92791862
C       -7.31486077     -10.02662778      -3.35151200
C       -8.10842525      -9.90336922      -2.20314305
C       -8.77792395     -11.00626025      -1.66327919
C       -8.66074783     -12.24869378      -2.26989887
Br      -9.57015312     -13.73942035      -1.54795340
C       -7.87495330     -12.39924191      -3.40909956
C       -7.19371268     -11.29688428      -3.96129058
C       -6.35130047     -11.52988444      -5.18755930
H       -6.24021342      -6.77255997      -5.41587783
H       -4.78533725      -7.09360782      -4.45171467
H       -5.37684821      -5.20848323      -2.91900828
H       -6.85114273      -4.90024676      -3.87310975
H       -5.42672547      -4.42990360      -5.81564333
H       -2.57720686      -4.72454521      -3.14560691
H       -0.77119040      -3.68481677      -1.49096390
H       -6.10306272      -9.11888251      -4.76394716
H       -8.23567441      -8.95381586      -1.69287034
H       -9.38624308     -10.87546277      -0.77199845
H       -7.79034758     -13.37996753      -3.87285196
H       -5.30242306     -11.29940700      -4.97472864
H       -6.70499878     -10.90976582      -6.01731303
H       -6.39676018     -12.57318634      -5.51840110
O       -6.89303092       7.43626614       2.50778856
C       -6.37406838       7.78788504       3.56006179
C       -5.67389152       6.79375448       4.46783751
C       -5.73495952       5.38239288       3.89128082
N       -5.06870545       4.44902214       4.83058234
S       -4.90799523       2.84404724       4.29605744
O       -4.57321743       2.07930805       5.47731193
O       -6.04884328       2.53460550       3.46826525
C       -3.47897540       2.75001623       3.25370749
C       -2.49716019       3.66349586       2.91299122
C       -1.50707264       3.09860375       2.05259236
C       -1.78190757       1.78190757       1.78190757
S       -3.19470461       1.22263769       2.52813972
N       -6.33657357       9.07317484       4.07905464
C       -6.91201167      10.24752831       3.53346057
C       -7.63889504      10.24061416       2.33542832
C       -8.20840709      11.41233309       1.82672321
C       -8.05683616      12.60772696       2.51477736
Br      -8.83155790      14.19130976       1.83465921
C       -7.33553948      12.64284610       3.70490917
C       -6.75505891      11.47021526       4.22661336
C       -5.97793213      11.57892076       5.51189133
H       -6.15826855       6.81861938       5.45176330
H       -4.63035659       7.10469112       4.59561203
H       -5.23470955       5.35215397       2.91747620
H       -6.78060203       5.08063340       3.76326381
H       -5.50878928       4.41086576       5.75261736
H       -2.48735473       4.68370592       3.27629833
H       -0.64609277       3.63239927       1.66847903
H       -5.84474044       9.18593709       4.95521486
H       -7.78941102       9.33205745       1.76089213
H       -8.76704556      11.37149151       0.89516724
H       -7.22282273      13.58780643       4.23253792
H       -4.93310106      11.29682434       5.34663330
H       -6.41774187      10.93460923       6.27972654
H       -5.98295248      12.60200803       5.90338710
O        5.69034141      -2.87189156       8.27485265
C        6.54377404      -3.50868499       7.66955618
C        6.20083716      -4.30830964       6.42633670
C        4.71585012      -4.19980667       6.09297643
N        4.42963543      -5.02405481       4.89461969
S        2.84899876      -4.91939937       4.27970178
O        2.71598003      -6.03957319       3.37428419
O        1.95258909      -4.70836791       5.39075704
C        2.74825778      -3.47492542       3.25951592
C        3.68756964      -2.55260589       2.83347175
C        3.12304775      -1.56337101       1.97184999
C        1.78190757      -1.78190757       1.78190757
S        1.19595204      -3.13324337       2.61628660
N        7.88893839      -3.60909071       7.99077395
C        8.56352241      -3.03348113       9.09599700
C        7.90318081      -2.25541827      10.05633843
C        8.59117795      -1.71084292      11.14544253
C        9.95228977      -1.94094650      11.28610421
Br      10.88361564      -1.21341792      12.76049331
C       10.63303306      -2.70662383      10.34363787
C        9.95215314      -3.25872298       9.24101142
C       10.74938417      -4.06737884       8.25198121
H        6.47078524      -5.35715179       6.60071420
H        6.80390183      -3.93759153       5.58916638
H        4.44928342      -3.15525661       5.89979968
H        4.12023947      -4.56866370       6.93559607
H        4.63198499      -6.01806166       5.02222575
H        4.73129751      -2.59696563       3.11909584
H        3.67780008      -0.75065799       1.51851300
H        8.45642211      -4.16455266       7.36491763
H        6.83942700      -2.04849091       9.99444268
H        8.04812658      -1.11281324      11.87276449
H       11.70084687      -2.87685798      10.46546223
H       10.71620856      -3.59585157       7.26449856
H       10.35689870      -5.08718364       8.18799530
H       11.80250530      -4.14157190       8.54427041
C       -0.00445707       0.01189536      -1.78238275
H       -0.66409135       0.67374010      -2.43557963
H        0.65740317      -0.63156657      -2.45157240
C       -0.90989263      -0.90692880      -0.91072765
C        0.90977584       0.90977584      -0.90977584
C       -0.00465871       1.77757030       0.00794375
H       -0.66225468       2.44313916      -0.64384735
H        0.64322798       2.43503045       0.67728295
C       -1.78241447       0.00034974      -0.00472694
H       -2.45427497      -0.65498947       0.64260836
H       -2.43311707       0.67328779      -0.65473579
C       -0.91132561       0.90220522       0.91563759
C       -0.01476271      -0.02253852       1.78660255
H       -0.67934791      -0.69751639       2.42135241
H        0.63392994       0.61504881       2.47327442
C        0.01484550      -1.77751727      -0.01636693
H        0.67870853      -2.42144646      -0.68295456
H       -0.62264859      -2.45592969       0.64226336
C        1.78714474       0.01002794       0.00389507
H        2.44202412       0.67113390       0.66197326
H        2.45385902      -0.65136977      -0.64189061
C        0.91606151      -0.90478549       0.90901405
