194
Properties=species:S:1:pos:R:3 pbc="F F F"
C        1.79125110       1.79125110      -1.79125110
C        1.52301299       1.89781180      -3.15777708
C        2.33434810       2.69467128      -3.97578667
C        3.42044749       3.37432768      -3.42561180
N        4.33287678       4.13473340      -4.18356605
C        4.16690482       4.61692890      -5.46657064
O        3.08879307       4.67172833      -6.05332460
C        5.48039413       5.11497687      -6.11206080
H        6.30540452       4.44949264      -5.83273222
C        5.35285212       5.14254861      -7.65383565
C        5.23813864       3.83165704      -8.40665783
C        5.01528289       3.89400577      -9.79459885
C        4.89430147       2.73233728     -10.55947220
C        4.99453172       1.48690408      -9.94896384
C        5.21872881       1.40619817      -8.57685809
C        5.34452672       2.56907545      -7.80999404
N        5.79931581       6.50929233      -5.68249034
S        6.62774418       6.76204103      -4.24410794
O        6.58905628       8.18203085      -3.99788321
O        6.13133682       5.79349742      -3.29178113
C        8.33717210       6.36022797      -4.47145337
C        9.11575646       6.09110024      -5.58244117
C       10.47261432       5.80373510      -5.23393322
C       10.66243908       5.87689199      -3.87706788
Br      12.30778680       5.55849567      -3.03976571
S        9.26090746       6.28742661      -3.02585736
C        3.67153689       3.24622095      -2.05178338
F        4.72191491       3.87919447      -1.50711783
C        2.86419867       2.47097119      -1.22840804
H        0.68914942       1.35782998      -3.60079180
H        2.11219173       2.74400576      -5.03823082
H        5.11877509       4.51193128      -3.64284658
H        6.23619368       5.65782845      -8.05826236
H        4.48691070       5.76266412      -7.92753282
H        4.92492659       4.85848177     -10.29165177
H        4.71584741       2.80158967     -11.62957725
H        4.89377996       0.58038363     -10.53984959
H        5.29039756       0.43226520      -8.09890147
H        5.51332524       2.44911771      -6.74438828
H        5.00256020       7.14949964      -5.75115629
H        8.73157762       6.10039581      -6.59554265
H       11.25437974       5.56149791      -5.94378659
H        3.09234391       2.40503442      -0.17018301
C       -1.79125110      -1.79125110      -1.79125110
C       -2.87851860      -2.46714652      -1.23293676
C       -3.68492144      -3.28766910      -2.03221551
C       -3.39379665      -3.43919041      -3.38739990
N       -4.10188707      -4.30125539      -4.24803377
C       -5.34398561      -4.86684758      -4.03957117
O       -6.13757155      -4.49997094      -3.17630352
C       -5.67050104      -6.01520127      -5.02172950
H       -4.77072141      -6.61465378      -5.20225419
C       -6.77827803      -6.92758066      -4.44337768
C       -6.47063412      -7.77870096      -3.22711843
C       -7.52841652      -8.51415642      -2.66131457
C       -7.32862678      -9.31918263      -1.53830154
C       -6.06612899      -9.40298467      -0.96128599
C       -5.00665168      -8.68491146      -1.51022194
C       -5.20427496      -7.88145236      -2.63786889
N       -6.18423032      -5.48637627      -6.32049189
S       -5.09647391      -5.02429066      -7.51312858
O       -5.87067597      -4.36389822      -8.53439615
O       -3.98164259      -4.38705107      -6.84792171
C       -4.41860976      -6.46796220      -8.28228147
C       -4.73785905      -7.81298138      -8.23845744
C       -3.86115199      -8.60247551      -9.04665513
C       -2.92409280      -7.81975793      -9.67254823
Br      -1.59896232      -8.49591540     -10.81117046
S       -3.08131581      -6.17436140      -9.31851423
C       -2.29319305      -2.75405003      -3.92229814
F       -1.98718496      -2.90046367      -5.22057859
C       -1.49594490      -1.92553380      -3.14209920
H       -3.10415262      -2.37034685      -0.17327173
H       -4.51286613      -3.81508640      -1.56647578
H       -3.71941981      -4.35581857      -5.19831457
H       -7.09563246      -7.62037801      -5.23627402
H       -7.65820207      -6.31175880      -4.20714677
H       -8.52683597      -8.45647773      -3.09174644
H       -8.16023946      -9.87465834      -1.11211654
H       -5.90826446     -10.02296939      -0.08277933
H       -4.02124551      -8.74553487      -1.05478385
H       -4.34577812      -7.33925394      -3.02179919
H       -6.91497410      -4.77678076      -6.21146127
H       -5.56008685      -8.21141827      -7.65601097
H       -3.92445434      -9.67838606      -9.15682384
H       -0.65801414      -1.41047485      -3.59907235
C       -1.79125110       1.79125110       1.79125110
C       -2.07859226       1.39935057       3.10065904
C       -2.89660879       2.19621325       3.91198400
C       -3.43524502       3.37877713       3.40636481
N       -4.32732607       4.20113425       4.12271591
C       -4.56667666       4.20127974       5.48244796
O       -3.84725334       3.65277312       6.31381955
C       -5.83574871       4.98735197       5.88433113
H       -6.62659128       4.81616567       5.14487244
C       -6.33828371       4.53491252       7.27604014
C       -6.90304963       3.13716025       7.43624363
C       -7.25081535       2.71906573       8.73400643
C       -7.77382575       1.44568394       8.96660126
C       -7.95860270       0.56758253       7.90421441
C       -7.62345153       0.96583226       6.61250128
C       -7.10350857       2.24275913       6.37732851
N       -5.55647553       6.45108775       5.98353520
S       -5.62995438       7.40214522       4.60179356
O       -5.10543460       8.69359422       4.96994152
O       -5.07995708       6.61943230       3.51722599
C       -7.32410876       7.67783186       4.16691281
C       -8.52554462       7.45048089       4.81327235
C       -9.64836673       7.84270370       4.01921220
C       -9.24694098       8.35716553       2.81229244
Br     -10.43305350       8.97335776       1.49963692
S       -7.56760912       8.38520183       2.62138048
C       -3.13593625       3.74697686       2.08662811
F       -3.65849206       4.87288585       1.57684931
C       -2.31328671       2.97206233       1.27822885
H       -1.67836660       0.46988714       3.49951745
H       -3.11737643       1.85678846       4.92026342
H       -4.69119553       4.99614983       3.58620759
H       -7.13007166       5.22910941       7.59310342
H       -5.52196173       4.65156256       8.00358335
H       -7.10638933       3.38725107       9.58141973
H       -8.03032639       1.13914319       9.97754476
H       -8.35878968      -0.42701917       8.08224267
H       -7.76187435       0.27659682       5.78309306
H       -6.85437581       2.49991950       5.35253592
H       -4.71234788       6.66968774       6.52118051
H       -8.59607433       7.02441500       5.80702676
H      -10.68348086       7.75070016       4.32548321
H       -2.10402336       3.29824976       0.26528821
C        1.79125110      -1.79125110       1.79125110
C        2.61638662      -2.75498117       1.20723409
C        3.41901089      -3.57619980       2.00959535
C        3.38496437      -3.43868368       3.39673891
N        4.09809372      -4.27005950       4.28302301
C        5.16131465      -5.10023272       3.98885698
O        5.81505282      -5.04897781       2.94981537
C        5.48287783      -6.11114581       5.11340816
H        4.55081528      -6.47911819       5.55769591
C        6.28446943      -7.31063032       4.55413662
C        5.60165934      -8.27273777       3.60205639
C        6.38692258      -9.28929046       3.02767446
C        5.83462890     -10.21305809       2.13842396
C        4.48597224     -10.13631579       1.80811161
C        3.69279458      -9.13900817       2.36998232
C        4.24366696      -8.21554782       3.26438142
N        6.32762899      -5.48786118       6.17560831
S        5.59388123      -4.62498028       7.41503164
O        6.65623273      -3.97313559       8.13960202
O        4.48995358      -3.89646232       6.83019947
C        4.85392366      -5.75467276       8.56025701
C        4.92969597      -7.12457464       8.73502726
C        4.11438388      -7.57628828       9.81961047
C        3.46559523      -6.52836588      10.42243784
Br       2.30258446      -6.72565545      11.87780827
S        3.81984216      -5.03033124       9.72401803
C        2.54378788      -2.46724309       3.95851024
F        2.48479251      -2.33126773       5.29216698
C        1.75516303      -1.63697380       3.17144107
H        2.63746710      -2.88303679       0.12726732
H        4.03707550      -4.32910880       1.52824401
H        3.91065700      -4.08791405       5.27498190
H        6.63491714      -7.91137371       5.40599365
H        7.18889584      -6.93212874       4.05608306
H        7.44685005      -9.36258193       3.26562816
H        6.45951436     -10.98721502       1.70028496
H        4.05403075     -10.84921095       1.11077148
H        2.63991791      -9.07533107       2.10631524
H        3.58213255      -7.45583450       3.66886419
H        7.12917629      -4.96771662       5.80632322
H        5.54024495      -7.77122106       8.11605008
H        4.01873747      -8.60937782      10.13154895
H        1.12364218      -0.89544745       3.64847170
C       -0.00445707       0.01189536      -1.78238275
H       -0.66409135       0.67374010      -2.43557963
H        0.65740317      -0.63156657      -2.45157240
C       -0.90989263      -0.90692880      -0.91072765
C        0.90977584       0.90977584      -0.90977584
C       -0.00465871       1.77757030       0.00794375
H       -0.66225468       2.44313916      -0.64384735
H        0.64322798       2.43503045       0.67728295
C       -1.78241447       0.00034974      -0.00472694
H       -2.45427497      -0.65498947       0.64260836
H       -2.43311707       0.67328779      -0.65473579
C       -0.91132561       0.90220522       0.91563759
C       -0.01476271      -0.02253852       1.78660255
H       -0.67934791      -0.69751639       2.42135241
H        0.63392994       0.61504881       2.47327442
C        0.01484550      -1.77751727      -0.01636693
H        0.67870853      -2.42144646      -0.68295456
H       -0.62264859      -2.45592969       0.64226336
C        1.78714474       0.01002794       0.00389507
H        2.44202412       0.67113390       0.66197326
H        2.45385902      -0.65136977      -0.64189061
C        0.91606151      -0.90478549       0.90901405
