181
Properties=species:S:1:pos:R:3 pbc="F F F"
C        0.00000000       0.00000000       0.00000000
C        0.88134708       0.88134708      -0.88134708
C        0.61310897       0.98790778      -2.24787306
C        1.42444408       1.78476725      -3.06588264
C        2.51054346       2.46442365      -2.51570778
N        3.42297276       3.22482937      -3.27366203
C        3.25700079       3.70702487      -4.55666662
O        2.17888905       3.76182431      -5.14342058
C        4.57049011       4.20507285      -5.20215677
H        5.39550050       3.53958862      -4.92282819
C        4.44294809       4.23264458      -6.74393162
C        4.32823461       2.92175302      -7.49675380
C        4.10537887       2.98410174      -8.88469482
C        3.98439745       1.82243326      -9.64956817
C        4.08462769       0.57700006      -9.03905981
C        4.30882479       0.49629415      -7.66695406
C        4.43462270       1.65917142      -6.90009001
N        4.88941179       5.59938830      -4.77258632
S        5.71784016       5.85213701      -3.33420391
O        5.67915226       7.27212682      -3.08797919
O        5.22143280       4.88359339      -2.38187711
C        7.42726807       5.45032394      -3.56154934
C        8.20585244       5.18119621      -4.67253714
C        9.56271029       4.89383107      -4.32402919
C        9.75253505       4.96698797      -2.96716386
S        8.35100344       5.37752259      -2.11595334
C        2.76163286       2.33631693      -1.14187936
F        3.81201089       2.96929045      -0.59721381
C        1.95429464       1.56106717      -0.31850402
H       -0.22075461       0.44792596      -2.69088778
H        1.20228770       1.83410173      -4.12832680
H        4.20887106       3.60202725      -2.73294256
H        5.32628966       4.74792442      -7.14835834
H        3.57700667       4.85276009      -7.01762880
H        4.01502257       3.94857775      -9.38174775
H        3.80594339       1.89168565     -10.71967323
H        3.98387594      -0.32952039      -9.62994556
H        4.38049353      -0.47763883      -7.18899745
H        4.60342122       1.53921369      -5.83448426
H        4.09265617       6.23959561      -4.84125227
H        7.82167360       5.19049179      -5.68563863
H       10.34447572       4.65159388      -5.03388256
H        2.18243988       1.49513039       0.73972102
C       11.01724263       4.72225050      -2.32356592
C       12.07643523       4.51728286      -1.78455264
Br      13.78906008       4.18586754      -0.91301376
C       -0.88134708      -0.88134708      -0.88134708
C       -2.11065122      -1.33774090      -0.40049769
C       -2.91985710      -2.15704453      -1.19819235
C       -2.49091156      -2.52763907      -2.47212425
N       -3.20177651      -3.40809417      -3.31159347
C       -4.52588395      -3.78550215      -3.20930618
O       -5.35978293      -3.21023050      -2.51412050
C       -4.88634863      -5.01019358      -4.08117753
H       -4.06247311      -5.73297635      -4.06246785
C       -6.17077769      -5.69384219      -3.55490441
C       -6.13227790      -6.40034546      -2.21411807
C       -7.34169548      -6.91782156      -1.71465840
C       -7.39162805      -7.57882183      -0.48594900
C       -6.23164995      -7.73420581       0.26516819
C       -5.02499433      -7.23170161      -0.21537705
C       -4.97258819      -6.57314118      -1.44815477
N       -5.16184398      -4.60701549      -5.49252693
S       -3.88490980      -4.44816839      -6.57110289
O       -4.43186911      -3.84601624      -7.76137293
O       -2.78152464      -3.86473269      -5.84064598
C       -3.32431878      -6.05511912      -7.05970346
C       -3.82855533      -7.33284196      -6.89818850
C       -2.97774500      -8.32604561      -7.47677995
C       -1.87325318      -7.75580192      -8.05763178
S       -1.84412955      -6.07050966      -7.92984015
C       -1.25005112      -2.06054402      -2.92923400
F       -0.81264006      -2.42008314      -4.14579194
C       -0.44644199      -1.23490233      -2.15252151
H       -2.44706934      -1.06951625       0.59852646
H       -3.86261271      -2.51151275      -0.79059077
H       -2.71856729      -3.63867553      -4.18659806
H       -6.48239270      -6.44573606      -4.29444367
H       -6.97960509      -4.94969767      -3.51809281
H       -8.26334725      -6.79982599      -2.28217482
H       -8.33707601      -7.96587479      -0.11435147
H       -6.26781965      -8.24187747       1.22539601
H       -4.11955981      -7.34758007       0.37528772
H       -4.00763824      -6.19657170      -1.77290923
H       -5.79575245      -3.80619453      -5.57155707
H       -4.76202960      -7.54513902      -6.39063540
H       -3.17473748      -9.39129508      -7.46391961
H        0.50337203      -0.89258271      -2.54863858
C       -0.83776472      -8.51014944      -8.71514489
C        0.02945686      -9.14191548      -9.26581212
Br       1.43168081     -10.16342773     -10.15619445
C       -0.88134708       0.88134708       0.88134708
C       -1.40744873       0.37114168       2.07029940
C       -2.22719602       1.16927640       2.87862156
C       -2.52832935       2.47368630       2.48865924
N       -3.40335622       3.32000865       3.19809928
C       -3.83941013       3.18064853       4.50063362
O       -3.32766503       2.42928735       5.32718155
C       -5.04219869       4.08768367       4.84783737
H       -5.73018664       4.13208851       3.99564217
C       -5.79929025       3.53939623       6.08083782
C       -6.55664900       2.23183394       5.95825850
C       -7.14364664       1.70639062       7.12413818
C       -7.85478014       0.50528383       7.09633490
C       -7.99161030      -0.19169658       5.90077385
C       -7.42043135       0.31537738       4.73626426
C       -6.71146776       1.52074634       4.76167003
N       -4.59471271       5.46885137       5.19782233
S       -4.33976293       6.59009127       3.97432689
O       -3.71379341       7.73139601       4.59406885
O       -3.74053936       5.88068117       2.86568277
C       -5.90111931       7.16727502       3.37074703
C       -7.20418462       7.03910811       3.81629306
C       -8.13712343       7.69216425       2.95128288
C       -7.49856305       8.29246694       1.89565689
S       -5.81998412       8.09581686       1.92867838
C       -1.99201245       2.96020805       1.28760865
F       -2.28405132       4.20721773       0.88724609
C       -1.16533152       2.18253239       0.48600192
H       -1.19366006      -0.65085150       2.37525057
H       -2.63666960       0.73941234       3.78863430
H       -3.57840830       4.22249313       2.74293944
H       -6.53332911       4.29657007       6.39267324
H       -5.09157028       3.43927458       6.91655071
H       -7.04155506       2.23116967       8.07262333
H       -8.29545585       0.11261399       8.00923242
H       -8.53835671      -1.13060978       5.87655418
H       -7.52201131      -0.23324839       3.80308923
H       -6.28231927       1.86786845       3.82693144
H       -3.81848655       5.48901379       5.86600372
H       -7.47533635       6.50390557       4.71856208
H       -9.20931825       7.71584026       3.10479365
H       -0.76815153       2.60171983      -0.43202210
C       -8.18219054       9.02174656       0.85912195
C       -8.75472856       9.63251824      -0.00897607
Br      -9.68047412      10.62008440      -1.41261714
C        0.88134708      -0.88134708       0.88134708
C        1.72628464      -1.82681310       0.29579208
C        2.52915297      -2.64802525       1.09791576
C        2.47560526      -2.52892319       2.48614644
N        3.18805248      -3.36252089       3.37089079
C        4.26560311      -4.17516164       3.07992753
O        4.93184786      -4.10211077       2.05017530
C        4.58582813      -5.19635515       4.19553645
H        3.65300542      -5.58192894       4.62298295
C        5.40996122      -6.37815780       3.63140527
C        4.75188525      -7.33650747       2.65834872
C        5.55751778      -8.33542163       2.08123603
C        5.02863740      -9.25458322       1.17317826
C        3.68343162      -9.19081268       0.82644326
C        2.87029500      -8.21107959       1.39069841
C        3.39769249      -7.29231004       2.30388160
N        5.40879710      -4.57612823       5.27646107
S        4.64816202      -3.73881089       6.51720817
O        5.69264029      -3.08287733       7.26374065
O        3.54246028      -3.01695038       5.92749265
C        3.90831528      -4.89259724       7.63822883
C        3.99957465      -6.26356651       7.79644464
C        3.17638456      -6.73966417       8.86452182
C        2.50643447      -5.70800966       9.47224275
S        2.85015642      -4.19665498       8.79766795
C        1.61481386      -1.57566495       3.04935034
F        1.53702489      -1.45772985       4.38376040
C        0.82563004      -0.74542269       2.26281309
H        1.76282048      -1.94059824      -0.78535960
H        3.16301286      -3.38668027       0.61502310
H        2.98561242      -3.19564153       4.36258693
H        5.75724129      -6.98535039       4.47998074
H        6.31570316      -5.98171374       3.14997867
H        6.61517774      -8.39823609       2.33193423
H        5.66903984     -10.01495487       0.73330755
H        3.26970136      -9.90008291       0.11451684
H        1.82013773      -8.15745495       1.11425948
H        2.72126424      -6.54641228       2.70944265
H        6.20819785      -4.04104622       4.92425998
H        4.62630337      -6.89429105       7.17720959
H        3.09014071      -7.77784304       9.16196841
H        0.17851870      -0.01826445       2.74106611
C        1.60029344      -5.88553768      10.57722793
C        0.84140033      -6.03421739      11.50265302
Br      -0.38566565      -6.27461991      12.99898711
