157
Properties=species:S:1:pos:R:3 pbc="F F F"
C        0.00000000       0.00000000       0.00000000
C        0.86728920       0.86728920      -0.86728920
C        0.94048703       0.78505075      -2.23613522
N        1.84790741       1.65185350      -2.81983719
C        2.38316132       2.39741191      -1.88838928
S        1.88787569       2.09187339      -0.28176565
N        3.27612033       3.41605433      -2.01148539
C        3.87606536       3.84052763      -3.15331581
O        4.52875565       4.89518857      -3.09803057
C        3.86699480       3.01704029      -4.46412295
H        3.46707458       2.01507639      -4.33244221
C        3.12667877       3.78919792      -5.56411987
C        1.65573182       3.98417318      -5.26821339
C        0.72535873       2.99006466      -5.60369348
C       -0.62506327       3.14906487      -5.28817012
C       -1.05803762       4.30086744      -4.63472014
C       -0.14309855       5.29875977      -4.30455490
C        1.20699691       5.14417051      -4.62249906
N        5.34198492       2.87560786      -4.71585418
S        5.92695989       2.07342933      -6.05623986
O        5.44230965       2.76406692      -7.23095412
O        7.34206655       1.87069103      -5.84881542
C        5.20995563       0.45605521      -6.15764926
C        4.52213766      -0.18584318      -7.17285556
C        4.14702994      -1.51466224      -6.81692180
C        4.56103731      -1.81759409      -5.54438901
Br       4.25753061      -3.47592732      -4.72822028
S        5.37913061      -0.54596134      -4.77976808
H        0.37045404       0.11292029      -2.86574868
H        3.46092666       3.97104021      -1.18821037
H        3.19176755       3.25274717      -6.51673351
H        3.59676519       4.76503756      -5.74237576
H        1.04716417       2.07893389      -6.10312816
H       -1.33874127       2.37194115      -5.54861654
H       -2.10881761       4.42249255      -4.38546031
H       -0.48121817       6.19956558      -3.79902849
H        1.90717000       5.93441377      -4.35753828
H        5.84251226       3.76074416      -4.57242563
H        4.31806517       0.28238098      -8.12983604
H        3.61435968      -2.19863287      -7.46674445
C       -0.86728920      -0.86728920      -0.86728920
C       -1.41541385      -0.48066284      -2.06559632
N       -2.22370878      -1.43076229      -2.66512703
C       -2.21289025      -2.51776235      -1.93830991
S       -1.29636515      -2.46816653      -0.49698305
N       -2.81545835      -3.71423062      -2.17397108
C       -3.64119396      -4.02147115      -3.20724369
O       -3.95642210      -5.21354753      -3.35200516
C       -4.27724096      -2.94772977      -4.12318732
H       -4.11575808      -1.93471290      -3.76412220
C       -3.78534569      -3.12948881      -5.56516205
C       -2.30085508      -2.88364377      -5.72361953
C       -1.81281959      -1.58411103      -5.92218625
C       -0.44009666      -1.35101864      -6.02105642
C        0.45684106      -2.41251684      -5.92187418
C       -0.01802888      -3.70897942      -5.73320781
C       -1.39018649      -3.94537526      -5.63810472
N       -5.73735178      -3.25445936      -3.94163582
S       -6.91800489      -2.39303945      -4.74558474
O       -6.70368925      -2.56851571      -6.16512573
O       -8.18400378      -2.73676219      -4.14080704
C       -6.69822866      -0.65654449      -4.46888695
C       -6.57313970       0.40826490      -5.34427524
C       -6.43898435       1.65483111      -4.66513626
C       -6.46080286       1.47771589      -3.30474526
Br      -6.31761100       2.88645647      -2.07866905
S       -6.63391639      -0.14170241      -2.83731855
H       -1.27483501       0.47711540      -2.55140340
H       -2.56946573      -4.48331813      -1.56739339
H       -4.29748343      -2.42967502      -6.23408977
H       -4.03271819      -4.13096232      -5.94049799
H       -2.49763935      -0.74173560      -5.98985127
H       -0.07035529      -0.34017182      -6.17128931
H        1.52572164      -2.23016224      -5.99469466
H        0.68113206      -4.53797035      -5.66053762
H       -1.74290712      -4.96470328      -5.49151165
H       -5.92626407      -4.26285374      -3.98656424
H       -6.59511230       0.28681506      -6.42198495
H       -6.34208404       2.61574524      -5.15613247
C       -0.86728920       0.86728920       0.86728920
C       -0.55178831       2.14254611       1.26733858
N       -1.48041840       2.73135485       2.10782484
C       -2.48850179       1.91375268       2.26670805
S       -2.38052482       0.40038347       1.48060644
N       -3.64425920       2.10012419       2.95927666
C       -3.97610476       3.17740284       3.71640119
O       -5.14407462       3.24618427       4.13171590
C       -2.94427827       4.24195547       4.16192431
H       -1.91945905       3.95981438       3.93531975
C       -3.30774659       5.60771655       3.56453342
C       -3.21051811       5.64256775       2.05503252
C       -1.98457756       5.90688246       1.42765685
C       -1.88434074       5.89237300       0.03545798
C       -3.00627697       5.61330731      -0.74203432
C       -4.23129685       5.35780192      -0.12888265
C       -4.33522382       5.37569930       1.26274335
N       -3.10177928       4.17646766       5.65520003
S       -2.22147386       5.16404979       6.67110542
O       -2.55201936       6.53504317       6.35026815
O       -2.39175372       4.65690162       8.01291766
C       -0.49256393       5.02181715       6.30927902
C        0.46710852       5.97156756       6.00469101
C        1.75691101       5.39539776       5.81080274
C        1.71517218       4.03323184       5.96977255
Br       3.21798678       2.92829921       5.79951114
S        0.17036426       3.44358596       6.33971565
H        0.33818771       2.69512514       0.99218558
H       -4.36960981       1.40699897       2.84356848
H       -2.63360845       6.38234250       3.94529727
H       -4.31511327       5.91533634       3.87372890
H       -1.09555117       6.11477857       2.01889649
H       -0.92945577       6.09474270      -0.44238205
H       -2.92697476       5.59795549      -1.82579499
H       -5.10783579       5.14473548      -0.73519537
H       -5.30037312       5.17453829       1.72421064
H       -4.08913085       4.15025443       5.93629677
H        0.24414204       7.03136854       5.94305569
H        2.65335079       5.95763364       5.57818842
C        0.86728920      -0.86728920       0.86728920
C        1.09763445      -2.20498806       0.65905050
N        1.89004904      -2.81148457       1.61806449
C        2.28015168      -1.90880615       2.48000469
S        1.70386018      -0.31823817       2.23941638
N        3.11150308      -2.04411310       3.54804387
C        3.67186923      -3.19378819       4.00425137
O        4.54091848      -3.09561986       4.88543645
C        3.19745455      -4.59682817       3.55387533
H        2.28682197      -4.56637239       2.96139881
C        4.33264432      -5.32509328       2.82225895
C        4.72671095      -4.65953460       1.52187283
C        4.03388174      -4.94793267       0.33730245
C        4.36625814      -4.29887279      -0.85295921
C        5.39208427      -3.35628346      -0.87081777
C        6.09268922      -3.06859999       0.29892690
C        5.76514992      -3.71905722       1.48945934
N        2.84325592      -5.21111099       4.87908005
S        2.28388256      -6.77831050       4.99443601
O        3.31066025      -7.65345447       4.47321597
O        1.77435472      -6.95235535       6.33486295
C        0.90142411      -7.01161525       3.91062075
C        0.65870412      -7.93860158       2.91184435
C       -0.62105126      -7.76197214       2.30836862
C       -1.28793547      -6.70367583       2.87209186
Br      -3.00379889      -6.16744114       2.34618132
S       -0.41045804      -5.92728476       4.09611063
H        0.71297325      -2.79786018      -0.16171042
H        3.41164124      -1.19797892       4.01055709
H        4.03343796      -6.34991149       2.57789877
H        5.21609079      -5.42141977       3.46666794
H        3.22219700      -5.67202906       0.33500016
H        3.82165337      -4.52580830      -1.76564526
H        5.64783034      -2.84806561      -1.79676069
H        6.89617823      -2.33680277       0.28439490
H        6.32374932      -3.48215684       2.39321588
H        3.55867789      -5.02508957       5.59191459
H        1.36913301      -8.71432469       2.64682449
H       -1.01929678      -8.38515134       1.51661670
