165
Properties=species:S:1:pos:R:3 pbc="F F F"
C        0.00000000       0.00000000       0.00000000
C        0.86728920       0.86728920      -0.86728920
C        0.94048703       0.78505075      -2.23613522
N        1.84790741       1.65185350      -2.81983719
C        2.38316132       2.39741191      -1.88838928
S        1.88787569       2.09187339      -0.28176565
N        3.27612033       3.41605433      -2.01148539
C        3.87606536       3.84052763      -3.15331581
O        4.52875565       4.89518857      -3.09803057
C        3.86699480       3.01704029      -4.46412295
H        3.46707458       2.01507639      -4.33244221
C        3.12667877       3.78919792      -5.56411987
C        1.65573182       3.98417318      -5.26821339
C        0.72535873       2.99006466      -5.60369348
C       -0.62506327       3.14906487      -5.28817012
C       -1.05803762       4.30086744      -4.63472014
C       -0.14309855       5.29875977      -4.30455490
C        1.20699691       5.14417051      -4.62249906
N        5.34198492       2.87560786      -4.71585418
S        5.92695989       2.07342933      -6.05623986
O        5.44230965       2.76406692      -7.23095412
O        7.34206655       1.87069103      -5.84881542
C        5.20995563       0.45605521      -6.15764926
C        4.52213766      -0.18584318      -7.17285556
C        4.14702994      -1.51466224      -6.81692180
C        4.56103731      -1.81759409      -5.54438901
S        5.37913061      -0.54596134      -4.77976808
H        0.37045404       0.11292029      -2.86574868
H        3.46092666       3.97104021      -1.18821037
H        3.19176755       3.25274717      -6.51673351
H        3.59676519       4.76503756      -5.74237576
H        1.04716417       2.07893389      -6.10312816
H       -1.33874127       2.37194115      -5.54861654
H       -2.10881761       4.42249255      -4.38546031
H       -0.48121817       6.19956558      -3.79902849
H        1.90717000       5.93441377      -4.35753828
H        5.84251226       3.76074416      -4.57242563
H        4.31806517       0.28238098      -8.12983604
H        3.61435968      -2.19863287      -7.46674445
C        4.32770151      -3.09251984      -4.91691890
C        4.13228279      -4.16027016      -4.39141269
Br       3.81630724      -5.88673212      -3.54171359
C       -0.86728920      -0.86728920      -0.86728920
C       -1.64698723      -0.41247068      -1.90221510
N       -2.40261174      -1.38799808      -2.52898827
C       -2.12740425      -2.54856615      -1.99299211
S       -1.00856347      -2.55150389      -0.70144737
N       -2.59019737      -3.78203462      -2.33142807
C       -3.51999829      -4.07241942      -3.27749108
O       -3.68798629      -5.26827945      -3.56570905
C       -4.43479089      -2.99849055      -3.91487661
H       -4.35846301      -2.03153207      -3.42459809
C       -4.15863641      -2.90036330      -5.42099685
C       -2.76617281      -2.40187046      -5.74007512
C       -2.49863073      -1.02640777      -5.79407837
C       -1.20420433      -0.56634490      -6.04162248
C       -0.16610182      -1.47489133      -6.23655681
C       -0.42276937      -2.84389959      -6.19354715
C       -1.71679059      -3.30658624      -5.95028964
N       -5.79140195      -3.55578954      -3.58625547
S       -7.19173425      -2.79152154      -4.07337329
O       -7.18425396      -2.73453351      -5.51854322
O       -8.28609153      -3.41203638      -3.36344509
C       -7.17061728      -1.09666115      -3.55638168
C       -7.33357282       0.08420480      -4.25978203
C       -7.26497164       1.23131332      -3.41563118
C       -7.04538036       0.86835981      -2.11081168
S       -6.91839541      -0.80651706      -1.88802488
H       -1.71809226       0.61286326      -2.24389400
H       -2.14775315      -4.57785976      -1.89456434
H       -4.86173072      -2.20611530      -5.89340220
H       -4.32311002      -3.86748696      -5.91358153
H       -3.29431772      -0.30262841      -5.63228010
H       -1.00508166       0.50141256      -6.07814731
H        0.84235885      -1.11639411      -6.42510000
H        0.38590290      -3.55299447      -6.35028433
H       -1.89869041      -4.37942633      -5.92100530
H       -5.84514864      -4.56562043      -3.76491298
H       -7.51006577       0.10956477      -5.32978118
H       -7.38003665       2.25346731      -3.75590192
C       -6.93595372       1.81567234      -1.03181919
C       -6.84430891       2.60904658      -0.12816298
Br      -6.69612701       3.89186562       1.33297268
C       -0.86728920       0.86728920       0.86728920
C       -1.12969475       0.63661097       2.19536728
N       -1.99909321       1.54174268       2.77876220
C       -2.31616041       2.45480159       1.89800052
S       -1.65201256       2.27570538       0.33379679
N       -3.09281345       3.56112505       2.04972155
C       -3.78475429       3.92524126       3.15991324
O       -4.29714025       5.05606083       3.16877371
C       -4.04482438       2.96078729       4.34254637
H       -3.75043215       1.93699406       4.12716697
C       -3.37143172       3.49502740       5.61353743
C       -1.86168177       3.52715372       5.51928290
C       -1.10590372       2.38664227       5.82657088
C        0.28360577       2.40155676       5.69422073
C        0.93023174       3.55427484       5.25350686
C        0.18938531       4.69585383       4.95374758
C       -1.19960883       4.68495638       5.08910126
N       -5.54648574       2.98704519       4.39991603
S       -6.39274627       2.11857495       5.54530785
O       -5.99038527       2.59763250       6.84931292
O       -7.78196035       2.13004129       5.14957137
C       -5.88866590       0.41996847       5.51502574
C       -5.42040905      -0.42095098       6.50969198
C       -5.15888565      -1.73710397       6.02750781
C       -5.43364379      -1.83245164       4.68664007
S       -5.98990654      -0.38360945       4.00664026
H       -0.72998024      -0.17361389       2.79275666
H       -3.10138412       4.22771114       1.29108199
H       -3.62377505       2.86462856       6.47284462
H       -3.74408689       4.49694761       5.86314401
H       -1.59473325       1.47408871       6.16040426
H        0.86124931       1.51199509       5.93107064
H        2.01167713       3.56425413       5.14655825
H        0.69387639       5.59679855       4.61445375
H       -1.76183458       5.58617478       4.85111268
H       -5.91718505       3.94115676       4.31734023
H       -5.29138615      -0.09842477       7.53732081
H       -4.79999780      -2.55640295       6.63887642
C       -5.26954199      -3.04521202       3.92777060
C       -5.13210673      -4.06089883       3.29221742
Br      -4.90988553      -5.70317850       2.26458168
C        0.86728920      -0.86728920       0.86728920
C        1.42043569      -0.47861481       2.06262250
N        2.22761920      -1.42937344       2.66260546
C        2.21105390      -2.51862816       1.93928045
S        1.29011958      -2.47068429       0.50071086
N        2.81057796      -3.71625149       2.17683059
C        3.63861309      -4.02284050       3.20845520
O        3.95052543      -5.21544750       3.35600186
C        4.28095898      -2.94823061       4.11896845
H        4.12154346      -1.93584751       3.75720220
C        3.79307093      -3.12386341       5.56306221
C        2.30987618      -2.87280704       5.72543516
C        1.82658813      -1.57110979       5.92141895
C        0.45493042      -1.33334930       6.02389200
C       -0.44567210      -2.39230344       5.93091862
C        0.02449169      -3.69085743       5.74486699
C        1.39558557      -3.93190763       5.64617327
N        5.73950822      -3.26016660       3.93377214
S        6.92542738      -2.39995923       4.73124246
O        6.71506482      -2.57026146       6.15200440
O        8.18840608      -2.74961106       4.12355587
C        6.71026991      -0.66365963       4.44973056
C        6.59133050       0.40430619       5.32212574
C        6.45896522       1.64913671       4.63946099
C        6.47590461       1.46764923       3.27957685
S        6.64240816      -0.15378145       2.81674774
H        1.28443117       0.48113733       2.54582916
H        2.56022861      -4.48646983       1.57347881
H        4.30954144      -2.42356565       6.22814113
H        4.03846339      -4.12492442       5.94079069
H        2.51428139      -0.73070260       5.98424223
H        0.08886836      -0.32086353       6.17208453
H       -1.51373375      -2.20632717       6.00654184
H       -0.67751614      -4.51785056       5.67704149
H        1.74461179      -4.95280896       5.50170129
H        5.92537031      -4.26900837       3.98130338
H        6.61633965       0.28619809       6.40014063
H        6.36666518       2.61190247       5.12770855
C        6.36625480       2.54804411       2.33388988
C        6.27442308       3.45287481       1.54187705
Br       6.12593896       4.91590954       0.26125928
