178
Properties=species:S:1:pos:R:3 pbc="F F F"
C        1.77719323       1.77719323      -1.77719323
C        1.85039105       1.69495478      -3.14603925
N        2.75781144       2.56175752      -3.72974121
C        3.29306534       3.30731594      -2.79829330
S        2.79777972       3.00177741      -1.19166968
N        4.18602435       4.32595836      -2.92138941
C        4.78596938       4.75043165      -4.06321983
O        5.43865968       5.80509259      -4.00793460
C        4.77689883       3.92694431      -5.37402698
H        4.37697861       2.92498041      -5.24234623
C        4.03658280       4.69910194      -6.47402389
C        2.56563584       4.89407720      -6.17811741
C        1.63526275       3.89996868      -6.51359751
C        0.28484076       4.05896889      -6.19807414
C       -0.14813359       5.21077146      -5.54462416
C        0.76680547       6.20866379      -5.21445892
C        2.11690093       6.05407453      -5.53240308
N        6.25188895       3.78551188      -5.62575820
S        6.83686391       2.98333335      -6.96614388
O        6.35221367       3.67397094      -8.14085814
O        8.25197058       2.78059506      -6.75871945
C        6.11985966       1.36595924      -7.06755328
C        5.43204169       0.72406085      -8.08275958
C        5.05693396      -0.60475822      -7.72682582
C        5.47094133      -0.90769007      -6.45429303
Br       5.16743464      -2.56602330      -5.63812431
S        6.28903463       0.36394269      -5.68967210
H        1.28035806       1.02282431      -3.77565270
H        4.37083069       4.88094424      -2.09811440
H        4.10167157       4.16265119      -7.42663753
H        4.50666921       5.67494158      -6.65227978
H        1.95706819       2.98883791      -7.01303219
H       -0.42883724       3.28184517      -6.45852056
H       -1.19891359       5.33239658      -5.29536434
H        0.42868585       7.10946961      -4.70893252
H        2.81707402       6.84431779      -5.26744230
H        6.75241628       4.67064819      -5.48232965
H        5.22796919       1.19228501      -9.03974006
H        4.52426371      -1.28872884      -8.37664848
C       -1.77719323      -1.77719323      -1.77719323
C       -3.14753923      -1.83499740      -1.70884844
N       -3.73170833      -2.74541298      -2.57218886
C       -2.79819845      -3.29846068      -3.30201545
S       -1.18969036      -2.81698317      -2.98455328
N       -2.92005017      -4.20092336      -4.31239860
C       -4.06367843      -4.79324720      -4.74269524
O       -4.00421417      -5.45774435      -5.78972835
C       -5.38296551      -4.76146875      -3.93343585
H       -5.25763371      -4.35225850      -2.93441305
C       -6.46672705      -4.01785053      -4.72513105
C       -6.15303473      -2.55229414      -4.93250158
C       -6.48904652      -1.60782520      -3.95195723
C       -6.15741153      -0.26260267      -4.12186960
C       -5.48719392       0.15106296      -5.27113107
C       -5.15629100      -0.77795791      -6.25567927
C       -5.49029628      -2.12287553      -6.09020674
N       -5.65196354      -6.23210937      -3.77908612
S       -7.00696207      -6.79422382      -2.98515526
O       -8.16903439      -6.30457759      -3.69343079
O       -6.81686482      -8.20919652      -2.76522374
C       -7.11781910      -6.05890477      -1.37664831
C       -8.13234554      -5.35353296      -0.75298362
C       -7.78651534      -4.96800809       0.57552186
C       -6.52177081      -5.39220819       0.89643470
Br      -5.72001631      -5.07962397       2.56010463
S       -5.75252371      -6.23192956      -0.35819616
H       -3.77809838      -1.25115926      -1.04957743
H       -2.09296707      -4.40037606      -4.85654620
H       -7.42561401      -4.06709258      -4.19825371
H       -6.63965699      -4.49644572      -5.69778787
H       -7.00152550      -1.91454405      -3.04286875
H       -6.41841967       0.46207685      -3.35518567
H       -5.22542007       1.19777991      -5.40120717
H       -4.63765568      -0.45488071      -7.15455159
H       -5.22449064      -2.83424001      -6.87010346
H       -5.50453267      -6.74357926      -4.65728219
H       -9.08207044      -5.14435780      -1.23356602
H       -8.43780700      -4.42118749       1.24681115
C       -1.77719323       1.77719323       1.77719323
C       -2.93157923       2.39572989       1.36407596
N       -3.53799234       3.18832109       2.32299674
C       -2.86266352       3.09697814       3.43903292
S       -1.46191521       2.11871610       3.41059548
N       -3.12613823       3.65691584       4.65031805
C       -4.13535341       4.51472611       4.94954134
O       -4.32043971       4.78394281       6.14730435
C       -4.97277125       5.23809790       3.86700097
H       -4.57526902       5.10473915       2.86429708
C       -6.44161195       4.80501204       3.96308464
C       -6.65327925       3.34142610       3.64312510
C       -6.81347277       2.92008851       2.31526766
C       -6.96137901       1.56477418       2.01573060
C       -6.94991385       0.61881056       3.03853762
C       -6.80003506       1.02759420       4.36229892
C       -6.65606370       2.38237205       4.66494280
N       -4.74189552       6.67364443       4.24761908
S       -5.45347445       7.92617108       3.40669561
O       -6.88753479       7.76936274       3.51014524
O       -4.81036766       9.14707971       3.83383771
C       -5.10772618       7.76994093       1.67570506
C       -5.93826876       7.73145450       0.56913887
C       -5.20948863       7.62095785      -0.65144492
C       -3.85893346       7.57297396      -0.41436312
Br      -2.57730466       7.43559010      -1.77335911
S       -3.45873602       7.65380710       1.23010630
H       -3.37887308       2.31935168       0.38061033
H       -2.56656770       3.35021411       5.43310751
H       -7.05496105       5.37715088       3.25884837
H       -6.85108068       5.02533463       4.95747527
H       -6.81272587       3.64336400       1.50284842
H       -7.08134077       1.24670178       0.98348595
H       -7.06088590      -0.43666732       2.80462875
H       -6.79580182       0.29036154       5.16092462
H       -6.54086351       2.68325376       5.70471685
H       -4.82448004       6.82025457       5.26065951
H       -7.01841112       7.79723172       0.64435143
H       -5.65991352       7.58854451      -1.63627470
C        1.77719323      -1.77719323       1.77719323
C        1.47864166      -2.14721293       3.06553049
N        2.45208387      -2.90830411       3.68892219
C        3.41977755      -3.13874708       2.84014996
S        3.26243276      -2.44011204       1.28868200
N        4.54489247      -3.88560598       3.00287367
C        4.95201593      -4.50935821       4.13824672
O        5.91501665      -5.28782340       4.04884682
C        4.34245235      -4.20674443       5.52867334
H        3.67292091      -3.35066496       5.52071938
C        3.66005251      -5.46235211       6.08730401
C        2.46279646      -5.90180577       5.27322823
C        1.19901474      -5.34147453       5.50833967
C        0.10390349      -5.71192700       4.72605331
C        0.26099488      -6.64388161       3.70238554
C        1.51072754      -7.21324885       3.46595179
C        2.60643695      -6.84770171       4.24923989
N        5.57236472      -3.79999412       6.29080020
S        5.50229289      -3.38038235       7.90366591
O        5.00614953      -4.52421658       8.63667665
O        6.77020776      -2.77747901       8.24359831
C        4.27928172      -2.12223869       8.15185176
C        3.18742121      -2.05185255       8.99958836
C        2.48517892      -0.81696480       8.87685784
C        3.07232346      -0.00962163       7.93559921
Br       2.43710751       1.69779250       7.50022064
S        4.43366573      -0.70461675       7.20436693
H        0.57854245      -1.88999551       3.61029712
H        5.10319761      -4.06585767       2.18083404
H        3.30313007      -5.28109461       7.10673562
H        4.37301030      -6.29316138       6.16771890
H        1.06025324      -4.60344550       6.29523955
H       -0.87121336      -5.26993244       4.91280941
H       -0.59090969      -6.92896564       3.09079138
H        1.63268111      -7.94385955       2.67054732
H        3.57483457      -7.30341384       4.05058571
H        6.36156098      -4.43216905       6.11166409
H        2.92458153      -2.85093577       9.68447695
H        1.61003499      -0.54661992       9.45552842
C       -0.00445707       0.01189536      -1.78238275
H       -0.66409135       0.67374010      -2.43557963
H        0.65740317      -0.63156657      -2.45157240
C       -0.90989263      -0.90692880      -0.91072765
C        0.90977584       0.90977584      -0.90977584
C       -0.00465871       1.77757030       0.00794375
H       -0.66225468       2.44313916      -0.64384735
H        0.64322798       2.43503045       0.67728295
C       -1.78241447       0.00034974      -0.00472694
H       -2.45427497      -0.65498947       0.64260836
H       -2.43311707       0.67328779      -0.65473579
C       -0.91132561       0.90220522       0.91563759
C       -0.01476271      -0.02253852       1.78660255
H       -0.67934791      -0.69751639       2.42135241
H        0.63392994       0.61504881       2.47327442
C        0.01484550      -1.77751727      -0.01636693
H        0.67870853      -2.42144646      -0.68295456
H       -0.62264859      -2.45592969       0.64226336
C        1.78714474       0.01002794       0.00389507
H        2.44202412       0.67113390       0.66197326
H        2.45385902      -0.65136977      -0.64189061
C        0.91606151      -0.90478549       0.90901405
