186
Properties=species:S:1:pos:R:3 pbc="F F F"
C        1.77719323       1.77719323      -1.77719323
C        1.85039105       1.69495478      -3.14603925
N        2.75781144       2.56175752      -3.72974121
C        3.29306534       3.30731594      -2.79829330
S        2.79777972       3.00177741      -1.19166968
N        4.18602435       4.32595836      -2.92138941
C        4.78596938       4.75043165      -4.06321983
O        5.43865968       5.80509259      -4.00793460
C        4.77689883       3.92694431      -5.37402698
H        4.37697861       2.92498041      -5.24234623
C        4.03658280       4.69910194      -6.47402389
C        2.56563584       4.89407720      -6.17811741
C        1.63526275       3.89996868      -6.51359751
C        0.28484076       4.05896889      -6.19807414
C       -0.14813359       5.21077146      -5.54462416
C        0.76680547       6.20866379      -5.21445892
C        2.11690093       6.05407453      -5.53240308
N        6.25188895       3.78551188      -5.62575820
S        6.83686391       2.98333335      -6.96614388
O        6.35221367       3.67397094      -8.14085814
O        8.25197058       2.78059506      -6.75871945
C        6.11985966       1.36595924      -7.06755328
C        5.43204169       0.72406085      -8.08275958
C        5.05693396      -0.60475822      -7.72682582
C        5.47094133      -0.90769007      -6.45429303
S        6.28903463       0.36394269      -5.68967210
H        1.28035806       1.02282431      -3.77565270
H        4.37083069       4.88094424      -2.09811440
H        4.10167157       4.16265119      -7.42663753
H        4.50666921       5.67494158      -6.65227978
H        1.95706819       2.98883791      -7.01303219
H       -0.42883724       3.28184517      -6.45852056
H       -1.19891359       5.33239658      -5.29536434
H        0.42868585       7.10946961      -4.70893252
H        2.81707402       6.84431779      -5.26744230
H        6.75241628       4.67064819      -5.48232965
H        5.22796919       1.19228501      -9.03974006
H        4.52426371      -1.28872884      -8.37664848
C        5.23760554      -2.18261582      -5.82682293
C        5.04218681      -3.25036614      -5.30131671
Br       4.72621126      -4.97682810      -4.45161761
C       -1.77719323      -1.77719323      -1.77719323
C       -3.08690956      -2.09314083      -1.51133469
N       -3.67187861      -2.95141087      -2.42602070
C       -2.81320557      -3.20689503      -3.37857399
S       -1.26689159      -2.49522452      -3.22911069
N       -2.97710095      -3.95079053      -4.50548064
C       -4.07542341      -4.66825140      -4.85594606
O       -4.10634196      -5.14240627      -6.00293864
C       -5.21446745      -5.00143626      -3.86196640
H       -4.97367247      -4.73426001      -2.83637278
C       -6.52511768      -4.35503059      -4.32956037
C       -6.48274342      -2.84269109      -4.31239594
C       -6.77543441      -2.13672924      -3.13666528
C       -6.69037711      -0.74374486      -3.10776182
C       -6.31189296      -0.04389635      -4.25147272
C       -6.02725993      -0.73516957      -5.42749868
C       -6.11547402      -2.12760869      -5.46029584
N       -5.22229823      -6.50245712      -3.93840368
S       -6.30780896      -7.41663542      -3.06189677
O       -7.64042522      -7.04394298      -3.48267456
O       -5.86632130      -8.79010542      -3.13485836
C       -6.23550258      -6.96908306      -1.34878653
C       -7.21552458      -6.56411970      -0.45921783
C       -6.69698299      -6.33032021       0.84830164
C       -5.34515005      -6.56140461       0.88901036
S       -4.69758068      -7.04479889      -0.60026985
H       -3.66888394      -1.74181731      -0.66813384
H       -2.24220119      -3.91064742      -5.19704071
H       -7.35306986      -4.65806424      -3.67982620
H       -6.79671467      -4.70230069      -5.33487522
H       -7.06079516      -2.66719667      -2.23094647
H       -6.91544793      -0.20484446      -2.19123611
H       -6.24170009       1.04033571      -4.22748295
H       -5.73656755      -0.18925877      -6.32126166
H       -5.89018785      -2.65067865      -6.38796762
H       -5.16050602      -6.83784498      -4.90704312
H       -8.25748145      -6.46010325      -0.74240956
H       -7.29123546      -6.02056552       1.69961764
C       -4.55056674      -6.41183808       2.08059218
C       -3.88510323      -6.28657611       3.07854195
Br      -2.80910501      -6.08403810       4.69214233
C       -1.77719323       1.77719323       1.77719323
C       -3.14289658       1.67251552       1.87597297
N       -3.73697928       2.61343879       2.69889210
C       -2.80494084       3.35478069       3.23895305
S       -1.19419877       3.01983561       2.77719243
N       -2.92587972       4.35802003       4.14947238
C       -4.07973629       4.86836240       4.65152218
O       -3.98788003       5.66189907       5.60190777
C       -5.46657558       4.58775951       4.02353503
H       -5.40306623       4.07255282       3.06868620
C       -6.35278502       3.83343254       5.02349107
C       -5.83581161       2.44994645       5.35207239
C       -6.15757835       1.35792183       4.53332876
C       -5.64225881       0.09033810       4.80928688
C       -4.80114553      -0.09781221       5.90392871
C       -4.48202178       0.97891853       6.72898787
C       -4.99914350       2.24649620       6.45773884
N       -5.93421125       5.98792734       3.74102044
S       -7.42934549       6.29068398       3.06631168
O       -8.43405455       5.76745095       3.96553726
O       -7.44475058       7.67899235       2.66754215
C       -7.62564929       5.35087455       1.57684833
C       -8.60650496       4.46370587       1.16865129
C       -8.36542596       3.95497237      -0.14139676
C       -7.20800357       4.47395147      -0.66441074
S       -6.41537903       5.54563290       0.38163749
H       -3.76454946       0.94354493       1.37074069
H       -2.07494907       4.71553921       4.55940105
H       -7.36303458       3.70851358       4.61941214
H       -6.47489746       4.40839691       5.95059621
H       -6.80290947       1.48852036       3.66750847
H       -5.89389119      -0.74971966       4.16735697
H       -4.39673823      -1.08397062       6.11607972
H       -3.82970272       0.83159588       7.58578938
H       -4.73962929       3.07562901       7.11357581
H       -5.75522561       6.61917904       4.53098948
H       -9.46265457       4.21197783       1.78536185
H       -9.01352036       3.25866172      -0.65999874
C       -6.71299196       4.14480544      -1.97598476
C       -6.29841974       3.86914565      -3.07442800
Br      -5.62809152       3.42342707      -4.85051781
C        1.77719323      -1.77719323       1.77719323
C        1.58576866      -1.98445095       3.12116547
N        2.54193878      -2.78214510       3.72522629
C        3.38425832      -3.19859465       2.81582161
S        3.12828399      -2.64245356       1.22048925
N        4.44173747      -4.04386951       2.94776515
C        4.90686406      -4.59389997       4.09885683
O        5.77344613      -5.47751555       4.00072519
C        4.48482308      -4.09192924       5.50111780
H        3.90556152      -3.17301050       5.46573323
C        3.74748326      -5.20499052       6.25723485
C        2.43148238      -5.58923643       5.61711165
C        1.26183419      -4.87439285       5.91260191
C        0.05709946      -5.19837937       5.28640496
C        0.00976171      -6.23772249       4.35977783
C        1.16448269      -6.96010564       4.06533985
C        2.36943729      -6.64093844       4.69300282
N        5.82427010      -3.74867953       6.09020940
S        5.97157551      -3.16786784       7.64689780
O        5.44841409      -4.17353317       8.54509550
O        7.32190571      -2.67610019       7.79327918
C        4.91208337      -1.76589005       7.87539876
C        3.93113362      -1.49436302       8.81336548
C        3.34415789      -0.20841201       8.62643167
C        3.90169641       0.43407546       7.54992334
S        5.10067198      -0.47322711       6.76875032
H        0.77986167      -1.57867022       3.72030318
H        4.88691109      -4.36350453       2.09947371
H        3.52309711      -4.88692300       7.28094019
H        4.38006423      -6.09653365       6.35729270
H        1.28253301      -4.05208783       6.62431746
H       -0.84385742      -4.63674507       5.51864084
H       -0.92744804      -6.48699141       3.86930396
H        1.12695899      -7.77407716       3.34605183
H        3.26110815      -7.21657761       4.45114835
H        6.52349780      -4.47746747       5.90442885
H        3.66731839      -2.18909640       9.60357946
H        2.56791289       0.21096277       9.25523322
C        3.51086101       1.75290695       7.12385859
C        3.18353636       2.85742833       6.76702936
Br       2.65428009       4.64334598       6.19006668
C       -0.00445707       0.01189536      -1.78238275
H       -0.66409135       0.67374010      -2.43557963
H        0.65740317      -0.63156657      -2.45157240
C       -0.90989263      -0.90692880      -0.91072765
C        0.90977584       0.90977584      -0.90977584
C       -0.00465871       1.77757030       0.00794375
H       -0.66225468       2.44313916      -0.64384735
H        0.64322798       2.43503045       0.67728295
C       -1.78241447       0.00034974      -0.00472694
H       -2.45427497      -0.65498947       0.64260836
H       -2.43311707       0.67328779      -0.65473579
C       -0.91132561       0.90220522       0.91563759
C       -0.01476271      -0.02253852       1.78660255
H       -0.67934791      -0.69751639       2.42135241
H        0.63392994       0.61504881       2.47327442
C        0.01484550      -1.77751727      -0.01636693
H        0.67870853      -2.42144646      -0.68295456
H       -0.62264859      -2.45592969       0.64226336
C        1.78714474       0.01002794       0.00389507
H        2.44202412       0.67113390       0.66197326
H        2.45385902      -0.65136977      -0.64189061
C        0.91606151      -0.90478549       0.90901405
