193
Properties=species:S:1:pos:R:3 pbc="F F F"
C        0.00000000       0.00000000       0.00000000
C        0.88134974       0.88134974      -0.88134974
C        0.30686889       1.86803503      -1.67029341
C        1.11816343       2.68110048      -2.46904719
C        2.50919548       2.51615681      -2.49349961
N        3.35194981       3.32775299      -3.28970283
C        2.99362807       4.30993200      -4.19904278
O        1.85656426       4.71625621      -4.43400787
C        4.18302045       4.87480428      -4.99094303
H        5.10908472       4.78726357      -4.41071615
C        4.35275608       4.10633955      -6.31440320
C        4.66084135       2.63770720      -6.14256125
C        5.97238586       2.19838315      -5.92220413
C        6.23926170       0.83866305      -5.74782890
C        5.19997966      -0.09000035      -5.78230333
C        3.89193754       0.33796893      -5.99408394
C        3.62344775       1.69393586      -6.17771213
N        3.94469579       6.31533411      -5.32113756
S        4.06297334       7.41188476      -4.03569949
O        4.66509348       6.72166975      -2.91346438
O        4.61991753       8.63236853      -4.56786213
C        2.41008571       7.80246238      -3.49480566
C        1.57305725       7.20333487      -2.56834868
C        0.31477318       7.86641007      -2.45727329
C        0.25553892       8.95070593      -3.29444780
S        1.65077760       9.15185849      -4.23201182
C        3.08771704       1.49426595      -1.70384313
C        4.57087658       1.23340956      -1.64753592
C        2.25999531       0.69429713      -0.89119312
H       -0.76921621       2.02062334      -1.67349442
H        0.62133821       3.44137934      -3.06272299
H        4.34049263       3.11592194      -3.23630568
H        5.15960998       4.56546671      -6.90203673
H        3.45118298       4.21432881      -6.93264933
H        6.79860528       2.90631546      -5.89992292
H        7.26085225       0.49980506      -5.59324055
H        5.40920819      -1.14876177      -5.65163902
H        3.07910208      -0.38373681      -6.02070953
H        2.59356338       2.00836860      -6.34047361
H        3.05326934       6.44673356      -5.80880304
H        1.85546943       6.32054611      -2.00637468
H       -0.48582109       7.55911661      -1.79545469
H        4.78243951       0.23454529      -1.24898019
H        5.05545426       1.97002426      -0.99951783
H        5.02256742       1.26399837      -2.64293868
H        2.69911279      -0.08055130      -0.26556566
C       -0.88233067       9.82938033      -3.37681337
C       -1.83529646      10.56527014      -3.44579453
Br      -3.37616153      11.75514173      -3.55733123
C       -0.88134974      -0.88134974      -0.88134974
C       -0.59367245      -1.01956551      -2.23195938
C       -1.39705236      -1.83627675      -3.03498199
C       -2.49773749      -2.51949662      -2.50161780
N       -3.32345567      -3.35435311      -3.29159684
C       -3.26810808      -3.57627573      -4.65821904
O       -2.42869626      -3.13589892      -5.44223315
C       -4.42929296      -4.43217592      -5.18729888
H       -4.80587022      -5.09867881      -4.40251540
C       -5.58076725      -3.52817159      -5.66456001
C       -6.18933392      -2.67456808      -4.57720780
C       -7.17758496      -3.18773075      -3.72765743
C       -7.71845682      -2.39168661      -2.71561022
C       -7.27104909      -1.08325881      -2.53797474
C       -6.28409534      -0.56652276      -3.37337231
C       -5.74866558      -1.35581044      -4.39061972
N       -3.97431892      -5.25392569      -6.35292284
S       -2.95152486      -6.55746230      -6.00157043
O       -2.96778648      -6.76448022      -4.56796092
O       -3.27691688      -7.61499311      -6.92823819
C       -1.28060471      -6.05748241      -6.36926662
C       -0.31344575      -5.42627824      -5.60501681
C        0.90232972      -5.21875518      -6.32203108
C        0.81130947      -5.71501759      -7.59698454
S       -0.70683621      -6.37371821      -7.95409349
C       -2.79951331      -2.35774789      -1.12856492
C       -3.95271277      -3.05008634      -0.44902296
C       -1.97152878      -1.54569415      -0.32826263
H        0.25304189      -0.50234774      -2.67559570
H       -1.12685748      -1.91575153      -4.08283154
H       -4.09521483      -3.79281591      -2.80468951
H       -6.37314345      -4.14865351      -6.10531646
H       -5.23791640      -2.87873412      -6.48151060
H       -7.54619485      -4.20371872      -3.85493009
H       -8.49710850      -2.78830169      -2.06848768
H       -7.69625278      -0.46256898      -1.75326369
H       -5.93246573       0.45328048      -3.23688956
H       -4.97662881      -0.93354210      -5.03223468
H       -3.55496198      -4.67051379      -7.08333017
H       -0.48312133      -5.12009202      -4.57917686
H        1.78312006      -4.73889324      -5.91297703
H       -4.20336089      -2.56285030       0.50024620
H       -3.69236807      -4.09222086      -0.24040742
H       -4.86018154      -3.01137563      -1.05794731
H       -2.18496977      -1.43210352       0.73294615
C        1.89509275      -5.67466683      -8.54428894
C        2.80276124      -5.64087307      -9.33765638
Br       4.27038442      -5.58623142     -10.62046442
C       -0.88134974       0.88134974       0.88134974
C       -2.20865079       1.09784691       0.53869963
C       -3.01673234       1.89756782       1.35401094
C       -2.50937455       2.49344571       2.51603164
N       -3.30680015       3.30329312       3.35931236
C       -4.61840962       3.70997486       3.17421837
O       -5.37066969       3.37624338       2.25991527
C       -5.10341463       4.71389947       4.23145366
H       -4.55796446       4.57660629       5.17249369
C       -4.88242048       6.15497139       3.73610697
C       -3.43470691       6.51163426       3.49476864
C       -2.61230924       6.93360513       4.54705877
C       -1.27102574       7.24329444       4.31143348
C       -0.73899907       7.12508230       3.02820128
C       -1.54714215       6.69987986       1.97696840
C       -2.88906055       6.39876659       2.20726859
N       -6.56802761       4.53150068       4.48163917
S       -7.01720961       3.14645861       5.34688937
O       -5.81793976       2.56645150       5.91583635
O       -8.15210706       3.50465424       6.16338689
C       -7.59721190       1.93345299       4.17668886
C       -6.93669462       0.95386521       3.45418097
C       -7.81663017       0.19917430       2.62265206
C       -9.11143188       0.62877676       2.76048401
S       -9.27513089       1.93704080       3.82247623
C       -1.14955921       2.28723898       2.84902793
C       -0.50195897       2.87230184       4.07756126
C       -0.35215136       1.46546433       2.02786987
H       -2.63169022       0.64980343      -0.35659210
H       -4.04847524       2.03113645       1.04582885
H       -2.83550753       3.68931422       4.16789850
H       -5.29787864       6.86041712       4.46881766
H       -5.45394015       6.32980873       2.81441223
H       -3.01035521       7.04020641       5.55428204
H       -0.63990067       7.58618231       5.12781488
H        0.30383569       7.37129572       2.84462542
H       -1.13499297       6.60589675       0.97518508
H       -3.50388882       6.06646080       1.37205597
H       -7.10778844       4.58837115       3.61264634
H       -5.86571837       0.79926835       3.51740350
H       -7.50563495      -0.61001622       1.97313149
H        0.59059739       2.86629297       3.99026942
H       -0.77789294       2.28708662       4.96001680
H       -0.78813807       3.91752452       4.22384189
H        0.68929254       1.28549374       2.28792594
C      -10.22388310       0.03378375       2.06619617
C      -11.15556100      -0.46452289       1.48473011
Br     -12.66200536      -1.27024259       0.54454865
C        0.88134974      -0.88134974       0.88134974
C        1.87470993      -0.30787532       1.66261208
C        2.67396850      -1.11708808       2.47725452
C        2.49483297      -2.50598031       2.51803863
N        3.28733105      -3.34585507       3.33621952
C        4.37031572      -3.00273262       4.12955451
O        4.80690202      -1.87023167       4.32969464
C        5.07757665      -4.21359411       4.75759700
H        4.37666183      -5.04717493       4.88322768
C        6.23996640      -4.67446050       3.85907194
C        5.81472137      -5.13986584       2.48652259
C        5.36516272      -6.44986719       2.27794323
C        4.95883174      -6.86049333       1.00642859
C        4.98886040      -5.96576115      -0.06233891
C        5.42787982      -4.65938514       0.13672545
C        5.84293693      -4.24902667       1.40313214
N        5.64498821      -3.84362224       6.09255701
S        4.53138861      -3.62865731       7.35051167
O        3.25147777      -4.14186418       6.90688566
O        5.16214046      -4.09668278       8.56132495
C        4.27109358      -1.87763228       7.55862789
C        3.38154445      -0.99681457       6.96638178
C        3.53233141       0.33871141       7.44483653
C        4.52121928       0.41233111       8.39180448
S        5.29109543      -1.06865869       8.67489379
C        1.49504920      -3.08783514       1.70294178
C        1.21070022      -4.56745251       1.67366933
C        0.68621069      -2.25877605       0.90049882
H        2.03867052       0.76649508       1.65272611
H        3.43239030      -0.61998286       3.07306738
H        3.07663510      -4.33456904       3.28151611
H        6.78043289      -5.49357859       4.35310193
H        6.97804066      -3.86789048       3.75222998
H        5.34182962      -7.16582772       3.09718631
H        4.62587697      -7.88297395       0.84504694
H        4.67729925      -6.28765119      -1.05286499
H        5.45171699      -3.95896131      -0.69460350
H        6.18136068      -3.22275962       1.53828529
H        6.25716920      -3.02468716       6.02694957
H        2.66364509      -1.30408847       6.21465666
H        2.94076245       1.18216822       7.11015599
H        0.64499371      -4.84432618       0.77664509
H        0.62188903      -4.85218486       2.55092247
H        2.13330686      -5.15364019       1.64255743
H       -0.09828346      -2.69643917       0.28597143
C        4.87810624       1.62887488       9.07463167
C        5.17699906       2.64773028       9.64649943
Br       5.66028347       4.29513330      10.57116125
