173
Properties=species:S:1:pos:R:3 pbc="F F F"
C        0.00000000       0.00000000       0.00000000
O        2.47194234       1.97467879     -10.67950980
C        3.35753749       2.61595548     -10.12266665
C        4.77611979       2.06418460     -10.01313698
S        4.87063396       0.73504858      -8.78010991
C        4.51506418       1.60372001      -7.32508527
N        4.53218332       2.89285891      -7.24506551
C        4.17977630       3.42705679      -6.02729334
C        3.88052930       2.71673213      -4.92995430
C        3.99234359       1.25972753      -5.01983832
O        3.89477604       0.50858241      -4.05995862
N        4.23331331       0.78161337      -6.27937373
H        4.30705074      -0.21817997      -6.40420937
S        3.49395981       3.55725928      -3.48792499
O        4.72752052       3.80290009      -2.76063565
O        2.63544675       4.68453083      -3.81678980
C        2.48792931       2.48544836      -2.48615458
C        1.20665830       2.13119663      -2.92618736
C        0.40644479       1.31703335      -2.12039468
C        0.88201233       0.88201233      -0.88201233
C        2.15113074       1.25254371      -0.43589297
C        2.95826142       2.05960026      -1.23883230
N        3.21853556       3.86248763      -9.53554939
C        2.05340880       4.64310836      -9.41333658
C        0.80153586       4.26166556      -9.89769094
C       -0.31024370       5.09345754      -9.72007219
C       -0.16817423       6.31436412      -9.06518535
C        1.07321726       6.70925118      -8.57927070
C        2.17956242       5.87227383      -8.75013469
H        5.50124834       2.85104132      -9.78154800
H        5.05352821       1.66024030     -10.99258306
H        4.14461504       4.51611833      -6.00112675
H        0.82133063       2.48641595      -3.87828602
H       -0.58647308       1.03354647      -2.46044158
H        2.51766664       0.92259900       0.53295510
H        3.94462537       2.35008038      -0.88174047
H        4.02291616       4.19628614      -9.01161416
H        0.65096458       3.31686653     -10.41053372
H       -1.27808901       4.77485530     -10.09812081
H        1.19342782       7.66167137      -8.06915004
H        3.14153733       6.20170186      -8.36472768
C       -1.31159828       7.17239610      -8.89208838
C       -2.26921592       7.89099789      -8.74711966
Br      -3.81760265       9.05291620      -8.51271751
O       -3.11904166      -1.40744478     -10.59964448
C       -3.91394192      -2.15013780     -10.03207991
C       -5.35526789      -1.71472188      -9.78345160
S       -5.44953965      -0.48516819      -8.45108461
C       -4.92691650      -1.42379426      -7.09315871
N       -4.84847351      -2.71305146      -7.10858277
C       -4.36992549      -3.30271061      -5.96149034
C       -4.03965224      -2.64993605      -4.83762744
C       -4.25874764      -1.20262571      -4.81053610
O       -4.14219671      -0.51475243      -3.80636793
N       -4.62566213      -0.65754150      -6.01109678
H       -4.77774498       0.34020759      -6.05554274
S       -3.48911473      -3.55734854      -3.49268081
O       -4.64491439      -3.94427056      -2.70187130
O       -2.58135578      -4.59184078      -3.96357082
C       -2.48796909      -2.48558450      -2.48597865
C       -1.27080859      -2.00699967      -2.98623402
C       -0.47114717      -1.19329640      -2.17942925
C       -0.88201233      -0.88201233      -0.88201233
C       -2.08549901      -1.37630755      -0.37776084
C       -2.89232201      -2.18365549      -1.18071648
N       -3.64530164      -3.42056410      -9.55070685
C       -2.42292650      -4.11864371      -9.56828352
C       -1.24020669      -3.61212649     -10.10855917
C       -0.06321298      -4.36893905     -10.07113400
C       -0.07090113      -5.63955619      -9.50091792
C       -1.24214425      -6.15877368      -8.96082122
C       -2.41358773      -5.39686612      -8.99151711
H       -6.00470575      -2.56767880      -9.56145311
H       -5.73237730      -1.26558649     -10.70838779
H       -4.25738450      -4.38529178      -6.01918384
H       -0.93388670      -2.26550854      -3.98663736
H        0.47153764      -0.81357090      -2.56548171
H       -2.40072219      -1.14270198       0.63611362
H       -3.82672937      -2.57103202      -0.77868483
H       -4.38321367      -3.84903435      -8.99856845
H       -1.19429026      -2.62540582     -10.55866875
H        0.84925565      -3.95351407     -10.49062867
H       -1.25753216      -7.15062084      -8.51609623
H       -3.31891573      -5.82313322      -8.56591792
C        1.13905651      -6.41979635      -9.47214637
C        2.15239604      -7.07324748      -9.44805019
Br       3.79088034      -8.12982269      -9.40908871
O       -2.38458066       2.05788699      10.68366328
C       -3.28216836       2.68457397      10.12941729
C       -4.69611464       2.11752078      10.03980595
S       -4.78952012       0.77507903       8.82119329
C       -4.45738189       1.63248655       7.35400102
N       -4.48836324       2.92051198       7.26123253
C       -4.15361892       3.44585202       6.03465549
C       -3.85821197       2.72748301       4.94152075
C       -3.95435122       1.27041566       5.04714256
O       -3.85881090       0.51060017       4.09390600
N       -4.17781890       0.80269451       6.31378700
H       -4.24016697      -0.19647201       6.44938516
S       -3.49466168       3.55719170       3.48729070
O       -4.73788066       3.78306592       2.77010967
O       -2.64435862       4.69629174       3.79611703
C       -2.48792197       2.48543063       2.48617964
C       -1.19877835       2.14852464       2.91673930
C       -0.39847947       1.33430624       2.11108710
C       -0.88201233       0.88201233       0.88201233
C       -2.15923058       1.23525654       0.44508029
C       -2.96640254       2.04227064       1.24802080
N       -3.16169910       3.92642508       9.52844840
C       -2.00582569       4.71741467       9.38661337
C       -0.74535710       4.35347456       9.86206068
C        0.35610034       5.19453377       9.66485260
C        0.19510665       6.40725608       8.99922581
C       -1.05503342       6.78472840       8.52197732
C       -2.15107223       5.93847043       8.71242829
H       -5.43146466       2.89467794       9.80769506
H       -4.95957813       1.72075865      11.02601479
H       -4.12975788       4.53489043       5.99721182
H       -0.80753913       2.51721926       3.86127420
H        0.60062047       1.06425263       2.44388280
H       -2.53210401       0.89185274      -0.51664622
H       -3.95919104       2.31920982       0.89804536
H       -3.97463511       4.24681315       9.00936820
H       -0.58008468       3.41547785      10.38280229
H        1.33086721       4.88950190      10.03625240
H       -1.18999812       7.73067761       8.00357350
H       -3.12015278       6.25431130       8.33350278
C        1.32798486       7.27491583       8.80595523
C        2.27677036       8.00158087       8.64409112
Br       3.81087627       9.17653679       8.38237054
O        2.19062004      -2.24879540      10.68671549
C        3.11459933      -2.84225453      10.13930576
C        4.51679568      -2.24166817      10.09497751
S        4.60667736      -0.86981381       8.90930128
C        4.32737952      -1.70051959       7.41597035
N        4.39003203      -2.98505143       7.29502429
C        4.09509167      -3.48944995       6.04958482
C        3.80788592      -2.75296509       4.96636473
C        3.86811444      -1.29691810       5.10687690
O        3.77657645      -0.51773317       4.16900745
N        4.05225974      -0.85352960       6.38851107
H        4.08856511       0.14340499       6.54792001
S        3.49626443      -3.55698998       3.48588967
O        4.76014506      -3.73833349       2.79257770
O        2.66564255      -4.72170278       3.74942205
C        2.48790386      -2.48539187       2.48623651
C        1.18200984      -2.18751825       2.89451420
C        0.38151132      -1.37318401       2.08917749
C        0.88201233      -0.88201233       0.88201233
C        2.17650581      -1.19633719       0.46672441
C        2.98376921      -2.00325412       1.26967065
N        3.03623577      -4.07235841       9.50797841
C        1.90232555      -4.88564807       9.32188011
C        0.62346195      -4.56114173       9.77628867
C       -0.45366561      -5.42197995       9.53497169
C       -0.24992847      -6.61516052       8.84614319
C        1.01896343      -6.95338273       8.38939298
C        2.09070749      -6.08731487       8.62394860
H        5.27484213      -2.99656836       9.86242717
H        4.74884744      -1.86185814      11.09564599
H        4.09711379      -4.57760123       5.98714510
H        0.77822605      -2.58652067       3.82128588
H       -0.63075595      -1.13336501       2.40490591
H        2.56290080      -0.82263004      -0.47822030
H        3.99027252      -2.24970208       0.93647161
H        3.86777731      -4.36238691       9.00065223
H        0.42501743      -3.63931104      10.31403636
H       -1.44328360      -5.14754133       9.89062936
H        1.18724614      -7.88389645       7.85310664
H        3.07505960      -6.37251170       8.26039557
C       -1.35793766      -7.50338196       8.60744191
C       -2.28589536      -8.24726741       8.40752958
Br      -3.78632447      -9.45006728       8.08428825
