182
Properties=species:S:1:pos:R:3 pbc="F F F"
C        1.79195316       1.79195316      -1.79195316
C        1.43073985       2.02213196      -3.12072893
C        2.22885393       2.83878815      -3.92493995
C        3.38594521       3.41338393      -3.38893131
C        3.74954615       3.18149856      -2.05834122
C        2.94648806       2.36641795      -1.25779064
S        4.36880045       4.49224859      -4.39741860
O        3.48001451       5.49363406      -4.94041968
O        5.56717276       4.84495436      -3.67005703
N        4.81630537       3.51386775      -5.67661083
C        6.01578381       2.68617442      -5.49553965
C        6.23108347       1.88065015      -6.74221168
N        5.70855180       0.62202489      -6.90611787
C        6.06412314       0.28226783      -8.12246822
N        5.77621465      -0.89682426      -8.71135505
N        6.76143706       1.33272504      -8.69421193
N        6.90208618       2.35627572      -7.80007647
S        7.59815386       1.19113392     -10.17919634
O        6.88029850       0.20915764     -10.97524283
O        7.80634400       2.54596722     -10.66021676
C        9.16440564       0.51359065      -9.69816801
C       10.22114042       1.37466288      -9.38378516
C       11.45728438       0.84040290      -9.01423873
C       11.62882163      -0.54375669      -8.96780301
Br      13.30271578      -1.26373764      -8.46494949
C       10.57726491      -1.40204149      -9.29242296
C        9.33931606      -0.87403703      -9.66488729
H        0.52775232       1.57902258      -3.53356406
H        1.94165116       3.03207333      -4.95612051
H        4.64003741       3.64045298      -1.63383665
H        3.22238710       2.19390610      -0.22019001
H        4.72951908       3.99092102      -6.57431055
H        5.89465519       2.01573011      -4.63910637
H        6.89300499       3.32161598      -5.33236039
H        5.74980983      -0.96236224      -9.73387944
H        5.05225008      -1.45658617      -8.26552064
H       10.09579082       2.45566539      -9.42511466
H       12.27957284       1.50884060      -8.76907064
H       10.71435484      -2.48062773      -9.26191905
H        8.52852265      -1.55147016      -9.92501690
C       -1.79195316      -1.79195316      -1.79195316
C       -1.25918310      -2.36744707      -2.94697057
C       -2.06026376      -3.18468393      -3.74763433
C       -3.39140950      -3.41292423      -3.38392673
C       -3.92642041      -2.83497153      -2.22799400
C       -3.12028894      -2.02092617      -1.42948155
S       -4.39068217      -4.49349819      -4.37428728
O       -3.66009610      -5.73113296      -4.52283920
O       -5.74700651      -4.45968207      -3.87549557
N       -4.37858697      -3.75465003      -5.87354696
C       -5.38080977      -2.70745672      -6.10923140
C       -5.18948113      -2.16868030      -7.49578387
N       -4.38393027      -1.08988846      -7.76287583
C       -4.43436094      -0.96640847      -9.06808979
N       -3.79566405      -0.01503207      -9.78004932
N       -5.23119069      -1.97511241      -9.58207092
N       -5.74893741      -2.73676020      -8.57274076
S       -5.73875456      -2.01483194     -11.21489762
O       -4.69374068      -1.37437074     -11.99658756
O       -6.14894423      -3.38280428     -11.48077946
C       -7.17908015      -0.98087922     -11.21620492
C       -8.43709147      -1.55027372     -10.99222326
C       -9.57215780      -0.73690941     -11.00285881
C       -9.44254794       0.63182146     -11.24214146
Br     -10.98076393       1.73041899     -11.25358269
C       -8.18829189       1.19722616     -11.47658064
C       -7.04960759       0.38890495     -11.46946369
H       -0.22249532      -2.19322290      -3.22462074
H       -1.64340852      -3.64657848      -4.63985800
H       -4.95665774      -3.02407261      -1.93359669
H       -3.53198054      -1.57957188      -0.52493078
H       -4.23978878      -4.42397274      -6.63098912
H       -5.27051740      -1.89860393      -5.38037034
H       -6.39036918      -3.12535628      -6.03125589
H       -3.57401959      -0.18028632     -10.76702113
H       -3.05807848       0.49061025      -9.29371633
H       -8.54568145      -2.61879947     -10.81208994
H      -10.55081365      -1.17832884     -10.82834158
H       -8.08956760       2.26315758     -11.66923612
H       -6.07735236       0.83773179     -11.66244881
C       -1.79195316       1.79195316       1.79195316
C       -2.62009021       2.74973255       1.20377798
C       -3.43687074       3.54812091       2.00759037
C       -3.41117049       3.38106274       3.39602722
C       -2.58016519       2.42310850       3.98611224
C       -1.76757001       1.62553285       3.17759380
S       -4.48832078       4.36013639       4.41001046
O       -5.82420295       4.20919241       3.88067290
O       -4.18093827       4.10246786       5.79877802
N       -4.01692511       5.92596308       4.06389578
C       -2.89205883       6.46992928       4.83550978
C       -2.62264614       7.86779857       4.36350059
N       -1.72785588       8.14782411       3.36101457
C       -1.81612787       9.44755367       3.20517765
N       -1.09569118      10.17135986       2.32369439
N       -2.77295941       9.93834554       4.07706907
N       -3.27613083       8.93112780       4.85117975
S       -3.01005147      11.61037207       4.34806058
O       -2.66208717      12.29103771       3.11157409
O       -4.33118641      11.74422944       4.93711213
C       -1.79736225      11.99618422       5.58261783
C       -2.13809713      11.90514461       6.93634672
C       -1.18543146      12.21835784       7.90813671
C        0.09256287      12.62407734       7.52135348
Br       1.38051769      13.04511914       8.83932618
C        0.42820480      12.72538058       6.17047059
C       -0.52063254      12.41571644       5.19381734
H       -2.64262182       2.87386870       0.12384845
H       -4.09426056       4.28465286       1.55093158
H       -2.57029574       2.27945520       5.06457610
H       -1.12891909       0.87320957       3.63435454
H       -4.81513949       6.54760280       3.93200835
H       -1.99762348       5.85471507       4.69715312
H       -3.14423038       6.50172296       5.90102802
H       -1.45161370      11.07462414       1.99508919
H       -0.62605310       9.64619290       1.58893856
H       -3.13584281      11.59614482       7.24458324
H       -1.44895930      12.14748504       8.96103973
H        1.42274234      13.04786744       5.87052105
H       -0.25202469      12.50672105       4.14332365
C        1.79195316      -1.79195316       1.79195316
C        2.57342767      -2.79121263       1.20896045
C        3.39035596      -3.58999821       2.01222787
C        3.41159651      -3.38153426       3.39512968
C        2.62731923      -2.38195722       3.98010948
C        1.81440630      -1.58424848       3.17204188
S        4.48971587      -4.36255028       4.40620148
O        5.81282607      -4.26770800       3.83353418
O        4.23219583      -4.05502365       5.79496468
N        3.96228021      -5.92288564       4.12161812
C        2.84578648      -6.40967017       4.94204124
C        2.52127751      -7.81200653       4.52066126
N        1.58872564      -8.09415003       3.55381888
C        1.63403228      -9.39997127       3.43485565
N        0.86630693     -10.12722263       2.59721587
N        2.60198071      -9.89367224       4.29272108
N        3.15770858      -8.87984073       5.02088906
S        2.79795620     -11.56342689       4.60710102
O        2.39289717     -12.26927246       3.40252934
O        4.13180851     -11.71984068       5.16087879
C        1.61237028     -11.87594459       5.88784942
C        1.99643727     -11.75553861       7.22761258
C        1.06482490     -12.01110697       8.23599414
C       -0.23565161     -12.38915511       7.89936444
Br      -1.49494683     -12.73214391       9.26673056
C       -0.61484549     -12.51988612       6.56260574
C        0.31269058     -12.26789068       5.54958507
H        2.55961674      -2.94763636       0.13308587
H        4.01171232      -4.35917803       1.55895465
H        2.65430989      -2.20645988       5.05355727
H        1.21223903      -0.79985538       3.62438879
H        4.73753714      -6.57199838       3.98521512
H        1.96602834      -5.77200249       4.81146084
H        3.12904069      -6.41777285       6.00016781
H        1.18544208     -11.05010384       2.28578111
H        0.39027767      -9.60989125       1.86101564
H        3.01169716     -11.46795114       7.49692257
H        1.36205878     -11.91734860       9.27807670
H       -1.62704545     -12.82080236       6.30188924
H        0.00986285     -12.38153848       4.51066805
C       -0.00445707       0.01189536      -1.78238275
H       -0.66409135       0.67374010      -2.43557963
H        0.65740317      -0.63156657      -2.45157240
C       -0.90989263      -0.90692880      -0.91072765
C        0.90977584       0.90977584      -0.90977584
C       -0.00465871       1.77757030       0.00794375
H       -0.66225468       2.44313916      -0.64384735
H        0.64322798       2.43503045       0.67728295
C       -1.78241447       0.00034974      -0.00472694
H       -2.45427497      -0.65498947       0.64260836
H       -2.43311707       0.67328779      -0.65473579
C       -0.91132561       0.90220522       0.91563759
C       -0.01476271      -0.02253852       1.78660255
H       -0.67934791      -0.69751639       2.42135241
H        0.63392994       0.61504881       2.47327442
C        0.01484550      -1.77751727      -0.01636693
H        0.67870853      -2.42144646      -0.68295456
H       -0.62264859      -2.45592969       0.64226336
C        1.78714474       0.01002794       0.00389507
H        2.44202412       0.67113390       0.66197326
H        2.45385902      -0.65136977      -0.64189061
C        0.91606151      -0.90478549       0.90901405
