190
Properties=species:S:1:pos:R:3 pbc="F F F"
C        1.79195316       1.79195316      -1.79195316
C        1.43073985       2.02213196      -3.12072893
C        2.22885393       2.83878815      -3.92493995
C        3.38594521       3.41338393      -3.38893131
C        3.74954615       3.18149856      -2.05834122
C        2.94648806       2.36641795      -1.25779064
S        4.36880045       4.49224859      -4.39741860
O        3.48001451       5.49363406      -4.94041968
O        5.56717276       4.84495436      -3.67005703
N        4.81630537       3.51386775      -5.67661083
C        6.01578381       2.68617442      -5.49553965
C        6.23108347       1.88065015      -6.74221168
N        5.70855180       0.62202489      -6.90611787
C        6.06412314       0.28226783      -8.12246822
N        5.77621465      -0.89682426      -8.71135505
N        6.76143706       1.33272504      -8.69421193
N        6.90208618       2.35627572      -7.80007647
S        7.59815386       1.19113392     -10.17919634
O        6.88029850       0.20915764     -10.97524283
O        7.80634400       2.54596722     -10.66021676
C        9.16440564       0.51359065      -9.69816801
C       10.22114042       1.37466288      -9.38378516
C       11.45728438       0.84040290      -9.01423873
C       11.62882163      -0.54375669      -8.96780301
C       10.57726491      -1.40204149      -9.29242296
C        9.33931606      -0.87403703      -9.66488729
H        0.52775232       1.57902258      -3.53356406
H        1.94165116       3.03207333      -4.95612051
H        4.64003741       3.64045298      -1.63383665
H        3.22238710       2.19390610      -0.22019001
H        4.72951908       3.99092102      -6.57431055
H        5.89465519       2.01573011      -4.63910637
H        6.89300499       3.32161598      -5.33236039
H        5.74980983      -0.96236224      -9.73387944
H        5.05225008      -1.45658617      -8.26552064
H       10.09579082       2.45566539      -9.42511466
H       12.27957284       1.50884060      -8.76907064
H       10.71435484      -2.48062773      -9.26191905
H        8.52852265      -1.55147016      -9.92501690
C       12.90398111      -1.09223255      -8.58473313
C       13.97192717      -1.55158107      -8.26391210
Br      15.69870564      -2.29430879      -7.74517163
C       -1.79195316      -1.79195316      -1.79195316
C       -1.20730100      -2.58614192      -2.78015783
C       -2.01071493      -3.40303305      -3.57883404
C       -3.39537205      -3.41148543      -3.38140297
C       -3.98199104      -2.61447556      -2.39291933
C       -3.17380108      -1.80164677      -1.59524881
S       -4.40722762      -4.48935724      -4.36188278
O       -3.84606478      -5.81621065      -4.25179282
O       -5.79628526      -4.21821851      -4.06768038
N       -4.10587077      -3.97686561      -5.92404758
C       -4.91329922      -2.85779803      -6.42640064
C       -4.47806483      -2.54803947      -7.82784100
N       -3.50147481      -1.62559160      -8.10962815
C       -3.37240460      -1.68241629      -9.41403831
N       -2.52276978      -0.92734880     -10.14062686
N       -4.23408377      -2.64741091      -9.90687934
N       -4.97483878      -3.18905450      -8.89454509
S       -4.53662659      -2.85436118     -11.57749634
O       -3.32319005      -2.46470845     -12.27680046
O       -5.09990585      -4.18494752     -11.72767460
C       -5.80519012      -1.66110096     -11.90987321
C       -7.14894041      -2.03341499     -11.79723306
C       -8.14766694      -1.09583720     -12.06842188
C       -7.79750179       0.19879385     -12.45416000
C       -6.45671232       0.56617566     -12.57710972
C       -5.45328532      -0.36739224     -12.30948877
H       -0.13012900      -2.58223321      -2.92797675
H       -1.55632500      -4.03421116      -4.33930884
H       -5.05699614      -2.63142829      -2.22590260
H       -3.62754216      -1.18954084      -0.81940020
H       -3.97053950      -4.75841937      -6.56579178
H       -4.78072699      -1.97398543      -5.79477925
H       -5.97358399      -3.13260625      -6.44079112
H       -2.20652995      -1.25643052     -11.05836656
H       -1.78691796      -0.45307363      -9.62119297
H       -7.42875628      -3.04412026     -11.50369432
H       -9.19283945      -1.38392874     -11.98071588
H       -6.18540716       1.57378233     -12.88402132
H       -4.41107323      -0.07384274     -12.41715341
C       -8.82922331       1.16429949     -12.73155786
C       -9.69329009       1.97291046     -12.96387857
Br     -11.09041298       3.28036601     -13.33952150
C       -1.79195316       1.79195316       1.79195316
C       -2.53293824       2.82523199       1.21543051
C       -3.34996994       3.62437124       2.01824085
C       -3.41192628       3.38196585       3.39436833
C       -2.66819921       2.34824793       3.97293880
C       -1.85503006       1.55040810       3.16525849
S       -4.49075496       4.36472287       4.40298981
O       -5.80068330       4.31825353       3.79513142
O       -4.27676056       4.01601367       5.78940992
N       -3.91728795       5.91763541       4.17186061
C       -2.81039282       6.35489786       5.03220721
C       -2.44016478       7.75854856       4.65523197
N       -1.47632247       8.04076915       3.71960295
C       -1.48585393       9.34989203       3.63311323
N       -0.67890654      10.07793203       2.83390687
N       -2.46284841       9.84665400       4.47887162
N       -3.06229819       8.82951510       5.16662508
S       -2.62496824      11.51249635       4.83101952
O       -2.17156758      12.23764313       3.65548826
O       -3.96826676      11.68919674       5.35506448
C       -1.46520851      11.76230565       6.14865013
C       -1.88644563      11.61829831       7.47484452
C       -0.97492788      11.82453522       8.51246291
C        0.34282058      12.17737369       8.21831483
C        0.75936906      12.33174934       6.89526609
C       -0.14786643      12.12909452       5.85320537
H       -2.48759351       3.00813499       0.14461046
H       -3.94003090       4.42035934       1.56945476
H       -2.72713038       2.14668277       5.04051388
H       -1.28450293       0.73973245       3.61224782
H       -4.67229304       6.58965272       4.03280489
H       -1.94381155       5.69831877       4.90736135
H       -3.12043285       6.34377860       6.08276991
H       -0.96673494      11.01621119       2.53838090
H       -0.19723053       9.56714060       2.09681343
H       -2.91516761      11.35022379       7.71117946
H       -1.30107670      11.71238106       9.54402631
H        1.78514609      12.61300748       6.66778476
H        0.18428928      12.26090242       4.82545624
C        1.28131828      12.38778038       9.29001959
C        2.06731011      12.56399598      10.18757232
Br       3.33819241      12.84892171      11.63883918
C        1.79195316      -1.79195316       1.79195316
C        2.70236693      -2.67011354       1.20112027
C        3.51880547      -3.46783108       2.00594547
C        3.41028831      -3.38030506       3.39766708
C        2.49690387      -2.50222913       3.99025293
C        1.68493299      -1.70483690       3.18092677
S        4.48529789      -4.35613642       4.41703333
O        5.83680487      -4.10526445       3.97199893
O        4.09084910      -4.19320896       5.79812609
N        4.12123556      -5.92291666       3.96263174
C        2.98927065      -6.56801871       4.64020854
C        2.82386363      -7.94959843       4.08048324
N        2.00050165      -8.22010723       3.01608568
C        2.16947779      -9.50257970       2.79680170
N        1.53836819     -10.21308371       1.83929353
N        3.10473677      -9.99000489       3.69363236
N        3.50905946      -9.00243373       4.54694517
S        3.42030860     -11.65966290       3.88851262
O        3.17695589     -12.28756402       2.60017906
O        4.71380239     -11.75609374       4.54263185
C        2.16741130     -12.17763182       5.03112117
C        2.43033143     -12.14454614       6.40471089
C        1.44654253     -12.56165794       7.30372554
C        0.21553260     -13.01223063       6.82510472
C       -0.04188628     -13.05543888       5.45409377
C        0.93854184     -12.64179633       4.54982816
H        2.78898158      -2.73227199       0.11908540
H        4.23963551      -4.14180385       1.54840564
H        2.42189952      -2.41985881       5.07256871
H        0.98189733      -1.01413281       3.64045306
H        4.95884052      -6.49304791       3.84286222
H        2.07040540      -5.99427239       4.48481389
H        3.18602933      -6.64596900       5.71498303
H        1.96117140     -11.07642617       1.48372946
H        1.07966728      -9.67325013       1.10826714
H        3.39149726     -11.80085665       6.78421695
H        1.64954847     -12.53593959       8.37199602
H       -0.99953797     -13.41286900       5.08231512
H        0.73146961     -12.68799053       3.48260925
C       -0.79794578     -13.44016536       7.75426210
C       -1.64673392     -13.79856071       8.53243141
Br      -3.01915255     -14.37805566       9.79066536
C       -0.00445707       0.01189536      -1.78238275
H       -0.66409135       0.67374010      -2.43557963
H        0.65740317      -0.63156657      -2.45157240
C       -0.90989263      -0.90692880      -0.91072765
C        0.90977584       0.90977584      -0.90977584
C       -0.00465871       1.77757030       0.00794375
H       -0.66225468       2.44313916      -0.64384735
H        0.64322798       2.43503045       0.67728295
C       -1.78241447       0.00034974      -0.00472694
H       -2.45427497      -0.65498947       0.64260836
H       -2.43311707       0.67328779      -0.65473579
C       -0.91132561       0.90220522       0.91563759
C       -0.01476271      -0.02253852       1.78660255
H       -0.67934791      -0.69751639       2.42135241
H        0.63392994       0.61504881       2.47327442
C        0.01484550      -1.77751727      -0.01636693
H        0.67870853      -2.42144646      -0.68295456
H       -0.62264859      -2.45592969       0.64226336
C        1.78714474       0.01002794       0.00389507
H        2.44202412       0.67113390       0.66197326
H        2.45385902      -0.65136977      -0.64189061
C        0.91606151      -0.90478549       0.90901405
