186
Properties=species:S:1:pos:R:3 pbc="F F F"
C        1.79211111       1.79211111      -1.79211111
C        1.62255227       3.17659871      -1.77217481
C        2.43117751       3.98452695      -2.57237133
C        3.40281233       3.40281423      -3.38370785
O        4.18282555       4.26089741      -4.12699412
C        5.39418751       3.65060783      -4.63255808
C        6.04387223       4.56997359      -5.68690044
C        4.96175841       2.39549495      -5.41984667
C        4.58826618       1.40221105      -4.34873334
H        4.19767745       0.48572259      -4.80526730
N        5.81956926       1.07012989      -3.67109622
C        6.76644265       2.02283632      -3.37565432
S        8.31387258       1.48223208      -3.02706249
N        6.33348783       3.35054878      -3.50131858
C        6.57234759       4.34293173      -2.45435343
C        6.23225160       5.69519880      -2.59823464
C        6.46173174       6.63489208      -1.58285210
C        7.02130107       6.24330528      -0.37171443
C        7.33293141       4.90086055      -0.15597939
C        7.90566835       4.40596394       1.14342735
C        7.08497204       3.97496386      -1.19450400
C        3.56010818       2.00711174      -3.42868878
C        2.75443071       1.20262970      -2.61280109
H        0.87265766       3.63544964      -1.13309980
H        2.31568416       5.06465126      -2.54908252
H        6.36713571       5.53616253      -5.29976041
H        5.33280373       4.79474764      -6.49090381
H        6.92900099       4.09678689      -6.12759995
H        4.10665413       2.61145558      -6.07391050
H        5.77419293       2.00178833      -6.04496103
H        6.12900801       0.10571946      -3.63511821
H        5.75369277       6.08197637      -3.48781043
H        6.18637677       7.67281006      -1.75422179
H        8.10729927       3.32994994       1.11171055
H        7.20215925       4.58287364       1.96294902
H        8.85601274       4.90520169       1.35765394
H        7.27301875       2.93160192      -0.96126660
H        2.87786753       0.12284312      -2.62185698
C        7.23314213       7.25554885       0.63032665
C        7.41055901       8.10330284       1.46953605
Br       7.69742711       9.47404934       2.82646668
C       -1.79211111      -1.79211111      -1.79211111
C       -3.06680339      -1.35355257      -2.15096982
C       -3.87172903      -2.15482143      -2.96152531
C       -3.39584125      -3.38572845      -3.40776471
O       -4.23226063      -4.11266516      -4.22579129
C       -3.55708293      -5.16505053      -4.95521995
C       -4.59561131      -6.10668493      -5.59845001
C       -2.83417736      -6.03653494      -3.90638772
C       -1.65184330      -5.19986781      -3.48749947
H       -1.10017465      -5.70309146      -2.68540124
N       -0.78842688      -5.12939390      -4.64297459
C       -1.28709409      -4.96386644      -5.91397276
S       -0.27537305      -5.35705523      -7.19073886
N       -2.63242870      -4.57408607      -5.97884042
C       -3.07579302      -3.46784441      -6.82599532
C       -4.42566533      -3.12188123      -6.97813847
C       -4.83587228      -2.05411427      -7.78948937
C       -3.89863431      -1.27683247      -8.46085401
C       -2.53869791      -1.54560805      -8.30546540
C       -1.47344992      -0.72097810      -8.97377693
C       -2.15406405      -2.62374833      -7.47662752
C       -2.12343979      -3.84511313      -3.02735578
C       -1.31510474      -3.02999575      -2.22476101
H       -3.43822652      -0.38945892      -1.81352166
H       -4.85902020      -1.81188592      -3.25851181
H       -5.23450010      -5.62805958      -6.34049896
H       -5.27435449      -6.50784557      -4.83625512
H       -4.10391427      -6.94646316      -6.10301039
H       -3.48764698      -6.25333231      -3.05104091
H       -2.49970173      -6.99408601      -4.32715454
H        0.16729198      -5.46012712      -4.57701053
H       -5.22024159      -3.64243348      -6.46080449
H       -5.89790350      -1.83783698      -7.87766814
H       -0.47058428      -1.10182326      -8.75313112
H       -1.51487642       0.31446628      -8.62167373
H       -1.59536399      -0.74687550     -10.06132100
H       -1.08721368      -2.75424811      -7.32442550
H       -0.32086195      -3.36301575      -1.93868993
C       -4.38315761      -0.19575330      -9.27945343
C       -4.78894587       0.70965050      -9.96503044
Br      -5.44507117       2.17361188     -11.07355048
C       -1.79211111       1.79211111       1.79211111
C       -3.17622758       1.61915519       1.77594301
C       -3.98325222       2.41950935       2.58531421
C       -3.40074929       3.38391104       3.40467408
O       -4.25403174       4.11998111       4.19670423
C       -3.58684745       4.81056083       5.27994513
C       -4.54708006       5.83431771       5.91934849
C       -2.47232613       5.66502787       4.63974603
C       -1.41023726       4.66173360       4.26723971
H       -0.59090888       5.16049362       3.73726485
N       -0.88846975       4.15675430       5.51557132
C       -1.70683770       3.87396875       6.58412684
S       -0.98352842       3.74901930       8.09061942
N       -3.07618614       3.82212632       6.28704272
C       -3.92156853       2.71542548       6.73263873
C       -5.30813099       2.68925017       6.52830388
C       -6.10571218       1.61791604       6.95584770
C       -5.53286274       0.51830894       7.58514910
C       -4.15102541       0.46936150       7.76938444
C       -3.46514224      -0.70608525       8.40914795
C       -3.37139588       1.56024967       7.32279435
C       -2.00943918       3.58141232       3.40505720
C       -1.20384084       2.76551683       2.60050383
H       -3.63418916       0.86111987       1.14589807
H       -5.06061489       2.27873758       2.59006546
H       -5.42964054       5.39209319       6.38132493
H       -4.92564929       6.53100396       5.16180192
H       -4.04031653       6.41210302       6.70096828
H       -2.84000435       6.19866132       3.75335454
H       -2.07121254       6.40966313       5.34006662
H        0.09971486       4.24857766       5.72098287
H       -5.83357250       3.47994317       6.00996390
H       -7.17793458       1.65656445       6.77890959
H       -2.38436379      -0.54806549       8.48924036
H       -3.62014040      -1.61016027       7.81210374
H       -3.84330878      -0.86395874       9.42421044
H       -2.29560783       1.45148584       7.41879361
H       -0.12449991       2.89303286       2.60503487
C       -6.40538269      -0.54880161       8.00178325
C       -7.13611814      -1.44250670       8.35071436
Br      -8.31765557      -2.88755224       8.91490644
C        1.79211111      -1.79211111       1.79211111
C        1.79884188      -3.17361904       1.59886487
C        2.60830939      -3.98051137       2.39925502
C        3.40491763      -3.40044434       3.38397244
O        4.19866211      -4.25288951       4.11916546
C        5.26182206      -3.58029641       4.83523494
C        5.90037202      -4.54612114       5.85425310
C        4.59294349      -2.48788977       5.69626676
C        4.21943639      -1.41665817       4.70311602
H        3.67026883      -0.61254274       5.20585578
N        5.46714587      -0.86944655       4.22420294
C        6.55163013      -1.66796560       3.94533756
S        8.04896132      -0.92110538       3.85310044
N        6.27552958      -3.04056964       3.86925596
C        6.74954376      -3.86300450       2.75708448
C        6.56605364      -5.25185072       2.70778067
C        7.02080216      -6.02727750       1.63139626
C        7.65749194      -5.42922192       0.54960693
C        7.82204677      -4.04428514       0.52343945
C        8.46863241      -3.33195119      -0.63237866
C        7.34823663      -3.28737062       1.61883265
C        3.38194307      -2.01233491       3.60163072
C        2.57753892      -1.20656975       2.78575283
H        1.18667863      -3.62946296       0.82506550
H        2.63097007      -5.05550147       2.24294640
H        6.38166642      -5.41527472       5.40611751
H        5.13845118      -4.94586523       6.53413875
H        6.66597511      -4.03663102       6.45078169
H        3.70441144      -2.87621383       6.21139493
H        5.27639910      -2.08766434       6.45687885
H        5.65662690       0.12015576       4.33337454
H        6.04408695      -5.79634835       3.48304426
H        6.85913250      -7.10240795       1.65186817
H        8.53049661      -2.25256865      -0.45752659
H        7.88712047      -3.48226664      -1.54730324
H        9.49133886      -3.69297904      -0.78075740
H        7.42994989      -2.20881737       1.52712002
H        2.56432180      -0.12927187       2.92897396
C        8.10237551      -6.27979197      -0.52380315
C        8.47496550      -6.99214439      -1.42278409
Br       9.07741201      -8.14395800      -2.87636024
C       -0.00445707       0.01189536      -1.78238275
H       -0.66409135       0.67374010      -2.43557963
H        0.65740317      -0.63156657      -2.45157240
C       -0.90989263      -0.90692880      -0.91072765
C        0.90977584       0.90977584      -0.90977584
C       -0.00465871       1.77757030       0.00794375
H       -0.66225468       2.44313916      -0.64384735
H        0.64322798       2.43503045       0.67728295
C       -1.78241447       0.00034974      -0.00472694
H       -2.45427497      -0.65498947       0.64260836
H       -2.43311707       0.67328779      -0.65473579
C       -0.91132561       0.90220522       0.91563759
C       -0.01476271      -0.02253852       1.78660255
H       -0.67934791      -0.69751639       2.42135241
H        0.63392994       0.61504881       2.47327442
C        0.01484550      -1.77751727      -0.01636693
H        0.67870853      -2.42144646      -0.68295456
H       -0.62264859      -2.45592969       0.64226336
C        1.78714474       0.01002794       0.00389507
H        2.44202412       0.67113390       0.66197326
H        2.45385902      -0.65136977      -0.64189061
C        0.91606151      -0.90478549       0.90901405
