178
Properties=species:S:1:pos:R:3 pbc="F F F"
C        1.79211111       1.79211111      -1.79211111
C        1.62255227       3.17659871      -1.77217481
C        2.43117751       3.98452695      -2.57237133
C        3.40281233       3.40281423      -3.38370785
O        4.18282555       4.26089741      -4.12699412
C        5.39418751       3.65060783      -4.63255808
C        6.04387223       4.56997359      -5.68690044
C        4.96175841       2.39549495      -5.41984667
C        4.58826618       1.40221105      -4.34873334
H        4.19767745       0.48572259      -4.80526730
N        5.81956926       1.07012989      -3.67109622
C        6.76644265       2.02283632      -3.37565432
S        8.31387258       1.48223208      -3.02706249
N        6.33348783       3.35054878      -3.50131858
C        6.57234759       4.34293173      -2.45435343
C        6.23225160       5.69519880      -2.59823464
C        6.46173174       6.63489208      -1.58285210
C        7.02130107       6.24330528      -0.37171443
Br       7.30036860       7.57677822       0.94831832
C        7.33293141       4.90086055      -0.15597939
C        7.90566835       4.40596394       1.14342735
C        7.08497204       3.97496386      -1.19450400
C        3.56010818       2.00711174      -3.42868878
C        2.75443071       1.20262970      -2.61280109
H        0.87265766       3.63544964      -1.13309980
H        2.31568416       5.06465126      -2.54908252
H        6.36713571       5.53616253      -5.29976041
H        5.33280373       4.79474764      -6.49090381
H        6.92900099       4.09678689      -6.12759995
H        4.10665413       2.61145558      -6.07391050
H        5.77419293       2.00178833      -6.04496103
H        6.12900801       0.10571946      -3.63511821
H        5.75369277       6.08197637      -3.48781043
H        6.18637677       7.67281006      -1.75422179
H        8.10729927       3.32994994       1.11171055
H        7.20215925       4.58287364       1.96294902
H        8.85601274       4.90520169       1.35765394
H        7.27301875       2.93160192      -0.96126660
H        2.87786753       0.12284312      -2.62185698
C       -1.79211111      -1.79211111      -1.79211111
C       -3.00611069      -1.29682058      -2.26839452
C       -3.81040597      -2.09850476      -3.07916505
C       -3.39433872      -3.38661916      -3.40837653
O       -4.22422967      -4.11276876      -4.23371866
C       -3.57848271      -5.25638642      -4.84248428
C       -4.63626042      -6.17051879      -5.49396706
C       -2.98985834      -6.09733959      -3.68990210
C       -1.78155975      -5.31304374      -3.24460708
H       -1.32103230      -5.79360681      -2.37402825
N       -0.84091310      -5.38163133      -4.33825093
C       -1.24160874      -5.27384173      -5.64948283
S       -0.17813592      -5.82228731      -6.82274392
N       -2.54878145      -4.80164400      -5.83492973
C       -2.85589041      -3.73123022      -6.78251212
C       -4.16491553      -3.30851686      -7.05225265
C       -4.44410789      -2.27605451      -7.95931352
C       -3.41196484      -1.61178729      -8.61256866
Br      -3.87532729      -0.22843566      -9.82506555
C       -2.08767822      -1.95811023      -8.34398291
C       -0.92497875      -1.25495373      -8.98827246
C       -1.83582726      -2.99797188      -7.42064075
C       -2.18551508      -3.90096276      -2.90943085
C       -1.37632134      -3.08628317      -2.10725699
H       -3.32988964      -0.28885961      -2.02245784
H       -4.74920113      -1.71299019      -3.46722662
H       -5.18930356      -5.70443251      -6.30932258
H       -5.39051873      -6.47107445      -4.75686199
H       -4.17294532      -7.07450808      -5.90593442
H       -3.71207389      -6.20947788      -2.87046844
H       -2.69688920      -7.10224154      -4.02181155
H        0.08257550      -5.76925469      -4.18316648
H       -5.02673876      -3.73757267      -6.55916813
H       -5.48003784      -1.99690124      -8.13646953
H        0.03167757      -1.68462751      -8.67258872
H       -0.91623095      -0.19673038      -8.70912255
H       -0.97634072      -1.34959381     -10.07762596
H       -0.79326185      -3.18754040      -7.18508503
H       -0.42918517      -3.46315974      -1.73022273
C       -1.79211111       1.79211111       1.79211111
C       -3.17899032       1.65083906       1.74149640
C       -3.98621515       2.45114476       2.55071587
C       -3.40120954       3.38383280       3.40429207
O       -4.25569664       4.12131329       4.19370716
C       -3.59805185       4.77258000       5.30672156
C       -4.54964090       5.80338672       5.94771865
C       -2.45077595       5.61559614       4.71072795
C       -1.40295386       4.59705176       4.33920496
H       -0.56106296       5.08876803       3.83883636
N       -0.92076858       4.05299360       5.58703319
C       -1.76908870       3.76523464       6.63060995
S       -1.08290083       3.59076967       8.14949664
N       -3.13219342       3.75088292       6.30227885
C       -4.01163959       2.65397936       6.70401379
C       -5.39347664       2.66362328       6.46858511
C       -6.22395736       1.60138835       6.85413021
C       -5.68986844       0.47550935       7.47094299
Br      -6.88212089      -0.91571285       7.96242046
C       -4.31395863       0.39133043       7.68448230
C       -3.66880243      -0.81313263       8.31253514
C       -3.50055913       1.47393523       7.27994553
C       -2.00624223       3.54982401       3.43984246
C       -1.20089476       2.73391059       2.63505615
H       -3.63923464       0.91742487       1.08454759
H       -5.06625524       2.33465537       2.52850733
H       -5.45194970       5.37110586       6.38000309
H       -4.89554531       6.52499131       5.19791856
H       -4.04801869       6.35219361       6.75317552
H       -2.78648560       6.17682730       3.82870730
H       -2.04923322       6.33534891       5.43636015
H        0.06431391       4.11793299       5.81622659
H       -5.88950427       3.47722292       5.95675237
H       -7.29079859       1.66812402       6.65448601
H       -2.58688256      -0.68135365       8.42000975
H       -3.83020267      -1.70008032       7.69196152
H       -4.07317605      -0.98479681       9.31518125
H       -2.42987478       1.33882514       7.39718737
H       -0.11937949       2.83690132       2.66628683
C        1.79211111      -1.79211111       1.79211111
C        1.57350654      -3.16937116       1.82844809
C        2.38184997      -3.97759578       2.62863003
C        3.40211813      -3.40348400       3.38373229
O        4.17805994      -4.26275518       4.12990196
C        5.42764151      -3.67953297       4.57017893
C        6.08257438      -4.58436821       5.63380368
C        5.06837096      -2.38270826       5.32602081
C        4.69126042      -1.41467219       4.23327797
H        4.34988780      -0.46915589       4.66962367
N        5.90801423      -1.15150898       3.50127216
C        6.80954533      -2.14776129       3.20762666
S        8.36128865      -1.67629126       2.78558724
N        6.33516135      -3.45364399       3.39654985
C        6.50088530      -4.49014458       2.37860287
C        6.11904276      -5.82328582       2.58335646
C        6.27839376      -6.80571592       1.59536625
C        6.80697273      -6.47742002       0.35192804
Br       6.99097364      -7.86560971      -0.92775485
C        7.15743086      -5.15557340       0.07676710
C        7.69957537      -4.72767243      -1.25904286
C        6.97998135      -4.18543955       1.08901899
C        3.60977848      -2.01369978       3.37243044
C        2.80368813      -1.20957417       2.55659920
H        0.78526198      -3.62279530       1.23314982
H        2.22779056      -5.05296265       2.64866473
H        6.35748653      -5.57464261       5.27092951
H        5.39374495      -4.75483299       6.46987723
H        6.99917550      -4.12849481       6.02571752
H        4.23055060      -2.54439413       6.01707547
H        5.91628458      -1.99710708       5.90755063
H        6.24956159      -0.20083292       3.41945116
H        5.65985606      -6.16099540       3.50262810
H        5.97322893      -7.82629756       1.81388212
H        7.93982461      -3.65924485      -1.27353080
H        6.96098523      -4.90752642      -2.04642777
H        8.62342168      -5.26831328      -1.48817447
H        7.19589225      -3.15841764       0.81157739
H        2.96515191      -0.13533220       2.52208353
C       -0.00445707       0.01189536      -1.78238275
H       -0.66409135       0.67374010      -2.43557963
H        0.65740317      -0.63156657      -2.45157240
C       -0.90989263      -0.90692880      -0.91072765
C        0.90977584       0.90977584      -0.90977584
C       -0.00465871       1.77757030       0.00794375
H       -0.66225468       2.44313916      -0.64384735
H        0.64322798       2.43503045       0.67728295
C       -1.78241447       0.00034974      -0.00472694
H       -2.45427497      -0.65498947       0.64260836
H       -2.43311707       0.67328779      -0.65473579
C       -0.91132561       0.90220522       0.91563759
C       -0.01476271      -0.02253852       1.78660255
H       -0.67934791      -0.69751639       2.42135241
H        0.63392994       0.61504881       2.47327442
C        0.01484550      -1.77751727      -0.01636693
H        0.67870853      -2.42144646      -0.68295456
H       -0.62264859      -2.45592969       0.64226336
C        1.78714474       0.01002794       0.00389507
H        2.44202412       0.67113390       0.66197326
H        2.45385902      -0.65136977      -0.64189061
C        0.91606151      -0.90478549       0.90901405
