138
Properties=species:S:1:pos:R:3 pbc="F F F"
C        1.79123428       1.79123428      -1.79123428
C        3.14352020       1.49302245      -1.93621687
C        3.94975761       2.30132035      -2.74461152
C        3.41454133       3.41379246      -3.41263255
C        2.04810440       3.69455116      -3.25383639
C        1.23915050       2.88820288      -2.44600788
C        4.25859847       4.24965895      -4.26630497
C        4.18743942       5.57156277      -4.48823336
N        5.18303912       5.97302880      -5.37947651
C        5.38515059       7.30850523      -5.83738535
C        4.91429208       8.39269177      -5.07402513
C        5.08796557       9.71632561      -5.49746085
C        5.72845392       9.97638978      -6.70255947
Br       5.96483360      11.75864279      -7.28072335
C        6.18914883       8.92492340      -7.48504622
C        6.01453824       7.60284266      -7.05391017
C        5.93841957       4.79302410      -5.70423012
S        7.30709403       4.50916336      -6.59526797
N        5.30694129       3.75449633      -4.99334898
H        5.60861792       2.79180450      -5.02598558
H        3.58158615       0.63928854      -1.42500716
H        5.00636504       2.05881715      -2.82985666
H        1.59068194       4.53736063      -3.76842882
H        0.18359482       3.12349955      -2.34014279
H        3.46648145       6.26177507      -4.07961697
H        4.43684569       8.23624876      -4.11103265
H        4.72569691      10.53040507      -4.87449526
H        6.67811318       9.11342400      -8.43741172
H        6.34297241       6.82077511      -7.72929167
C       -1.79123428      -1.79123428      -1.79123428
C       -2.82861776      -2.52375863      -1.22038312
C       -3.63571202      -3.33055457      -2.02942288
C       -3.41342753      -3.41471067      -3.41282814
C       -2.36322689      -2.66588406      -3.96738100
C       -1.55421327      -1.85816697      -3.16098102
C       -4.26705554      -4.25052587      -4.25698098
C       -3.94382618      -4.94276446      -5.36064491
N       -5.06165946      -5.60594544      -5.86793953
C       -5.07106801      -6.42339741      -7.03657574
C       -3.87676298      -7.00983636      -7.49440964
C       -3.84793444      -7.81109830      -8.64271928
C       -5.01714539      -8.02971168      -9.36054609
Br      -4.98560858      -9.10775142     -10.91083974
C       -6.20798599      -7.44990002      -8.94123243
C       -6.23022826      -6.65147792      -7.78958488
C       -6.15051993      -5.30849541      -4.97665844
S       -7.72550409      -5.81460274      -4.87141853
N       -5.59714508      -4.45188971      -4.00575181
H       -6.12544452      -4.06169578      -3.23926771
H       -3.01711339      -2.47819469      -0.15057377
H       -4.42941287      -3.90632814      -1.55929783
H       -2.16880539      -2.68977199      -5.03789402
H       -0.74883759      -1.28551859      -3.61288098
H       -2.97853941      -4.99001426      -5.83931982
H       -2.94666819      -6.89139066      -6.94606825
H       -2.91027145      -8.26169761      -8.95862818
H       -7.12700136      -7.59988073      -9.50206682
H       -7.17378940      -6.17916179      -7.54008800
C       -1.79123428       1.79123428       1.79123428
C       -1.21644518       2.54590640       2.81040794
C       -2.02535078       3.35345688       3.61688181
C       -3.41311754       3.41308301       3.41476579
C       -3.97101148       2.64546552       2.38001495
C       -3.16478472       1.83677419       1.57180235
C       -4.25391177       4.26778775       4.25286287
C       -5.51620994       4.06783589       4.66318973
N       -5.95143115       5.13637203       5.44774126
C       -7.24541699       5.24883279       6.03679139
C       -8.01291104       4.09368159       6.27441634
C       -9.29049837       4.16786018       6.84339348
C       -9.82707991       5.40583292       7.17449034
Br     -11.54986875       5.51372548       7.94060551
C       -9.09865310       6.56453494       6.93593041
C       -7.81957054       6.48283261       6.36888791
C       -4.84477420       6.05023851       5.54066107
S       -4.57915789       7.45833458       6.37403290
N       -3.82618071       5.46183319       4.76677270
H       -2.91636537       5.87776258       4.63228005
H       -0.14448484       2.51244000       2.98895700
H       -1.55663867       3.92128383       4.41711635
H       -5.04015010       2.67708334       2.17923795
H       -3.61859634       1.25337427       0.77526654
H       -6.15227665       3.22988295       4.42571389
H       -7.61945760       3.10411536       6.06055414
H       -9.84909218       3.25355139       7.02795366
H       -9.51260103       7.54063420       7.17571367
H       -7.31939739       7.42036956       6.15327224
C        1.79123428      -1.79123428       1.79123428
C        1.20493967      -2.70785234       2.65996751
C        2.01393749      -3.51514823       3.46660375
C        3.41294931      -3.41326624       3.41475079
C        3.98265546      -2.48380481       2.53003168
C        3.17635338      -1.67492077       1.72208712
C        4.25555569      -4.26751612       4.25149058
C        5.44062050      -3.98941530       4.81719975
N        5.91125387      -5.08961683       5.53467374
C        7.14448219      -5.13709838       6.24946059
C        7.75154267      -3.94468169       6.68478463
C        8.96631136      -3.95371833       7.38172234
C        9.60119570      -5.16104757       7.64515989
Br      11.24026103      -5.18088437       8.58305434
C        9.03325247      -6.35297498       7.21289100
C        7.81597768      -6.33686253       6.51845085
C        4.90908992      -6.11394602       5.41263784
S        4.71952691      -7.62522703       6.06677142
N        3.91381080      -5.54787272       4.59310309
H        3.07373106      -6.03497571       4.31770123
H        0.12345302      -2.80148761       2.72094122
H        1.53364322      -4.21214401       4.14925161
H        5.06336398      -2.38615731       2.44695011
H        3.63981741      -0.96442281       1.04299693
H        6.00029980      -3.07105215       4.73652154
H        7.27404792      -2.98170846       6.52837072
H        9.39881930      -3.01439868       7.71737926
H        9.52693301      -7.30346324       7.39855265
H        7.44691101      -7.28987831       6.15624987
C       -0.00445707       0.01189536      -1.78238275
H       -0.66409135       0.67374010      -2.43557963
H        0.65740317      -0.63156657      -2.45157240
C       -0.90989263      -0.90692880      -0.91072765
C        0.90977584       0.90977584      -0.90977584
C       -0.00465871       1.77757030       0.00794375
H       -0.66225468       2.44313916      -0.64384735
H        0.64322798       2.43503045       0.67728295
C       -1.78241447       0.00034974      -0.00472694
H       -2.45427497      -0.65498947       0.64260836
H       -2.43311707       0.67328779      -0.65473579
C       -0.91132561       0.90220522       0.91563759
C       -0.01476271      -0.02253852       1.78660255
H       -0.67934791      -0.69751639       2.42135241
H        0.63392994       0.61504881       2.47327442
C        0.01484550      -1.77751727      -0.01636693
H        0.67870853      -2.42144646      -0.68295456
H       -0.62264859      -2.45592969       0.64226336
C        1.78714474       0.01002794       0.00389507
H        2.44202412       0.67113390       0.66197326
H        2.45385902      -0.65136977      -0.64189061
C        0.91606151      -0.90478549       0.90901405
