129
Properties=species:S:1:pos:R:3 pbc="F F F"
C        0.00000000       0.00000000       0.00000000
C        0.88152348       0.88152348      -0.88152348
C        0.38901197       1.36092948      -2.09336804
C        1.19673772       2.16889272      -2.89763656
C        2.50055198       2.48989645      -2.49409465
C        2.98312259       2.01214813      -1.26919248
C        2.17210222       1.20539057      -0.46471465
C        3.33612314       3.36150402      -3.38016169
N        2.71353852       4.27314017      -4.07455259
N        3.46373763       5.04389235      -4.92777364
C        4.73425740       4.81568094      -5.39723852
S        5.62847571       3.42618928      -4.92010314
C        4.84473167       3.16155450      -3.32048040
N        5.09430382       5.72904827      -6.26026149
N        4.03718418       6.59629989      -6.38669125
C        3.05179016       6.19273468      -5.59501985
C        1.74389679       6.85062504      -5.48552025
C        0.95328789       6.79002689      -4.32861472
C       -0.28257002       7.44468378      -4.26828041
C       -0.73620835       8.17261576      -5.36505880
Br      -2.40467174       9.05578827      -5.28190867
C        0.03583210       8.25725512      -6.51923960
C        1.27024526       7.60266552      -6.57440450
H       -0.61840548       1.11504761      -2.42046840
H        0.80229573       2.54003152      -3.84191273
H        3.97541938       2.26775298      -0.90783907
H        2.55238863       0.83991891       0.48639716
H        5.09285391       2.14723091      -2.99697168
H        5.25593496       3.87035361      -2.59399374
H        1.28652999       6.24539325      -3.44890449
H       -0.87680276       7.38259587      -3.36023792
H       -0.30574579       8.82819503      -7.37852751
H        1.86775030       7.68174335      -7.48240962
C       -0.88152348      -0.88152348      -0.88152348
C       -0.69079811      -0.89095171      -2.26155967
C       -1.49740028      -1.69969693      -3.06616979
C       -2.50102298      -2.49221802      -2.49130208
C       -2.67815890      -2.48426925      -1.10203506
C       -1.86817385      -1.67566631      -0.29836727
C       -3.34385897      -3.34933958      -3.38459030
N       -2.77314508      -3.83706024      -4.45102596
N       -3.55042882      -4.58236710      -5.30260770
C       -4.92032688      -4.65587582      -5.37097416
S       -5.91938311      -3.76103131      -4.29435371
C       -4.76327963      -3.64501242      -2.91847452
N       -5.30773689      -5.40987318      -6.36600351
N       -4.17092262      -5.85383283      -6.99541987
C       -3.11070530      -5.36028236      -6.36855703
C       -1.71811802      -5.58823147      -6.77369260
C       -0.64528408      -5.55580430      -5.87084111
C        0.66491093      -5.79165374      -6.30365136
C        0.91288137      -6.06898285      -7.64536473
Br       2.68207843      -6.38718918      -8.22791445
C       -0.13641655      -6.11847770      -8.55743257
C       -1.44366551      -5.88344056      -8.12020921
H        0.08043999      -0.27703497      -2.72051554
H       -1.33949941      -1.70151460      -4.14322596
H       -3.42261110      -3.11041109      -0.61798924
H       -2.00959245      -1.67628334       0.77996541
H       -5.12698946      -2.86096430      -2.24910274
H       -4.75393840      -4.59411500      -2.37222892
H       -0.80685559      -5.36008678      -4.81388535
H        1.47933709      -5.76093510      -5.58443303
H        0.04524664      -6.34061228      -9.60561111
H       -2.25716519      -5.93085120      -8.84388688
C       -0.88152348       0.88152348       0.88152348
C       -2.25831110       0.67090530       0.91409310
C       -3.06289048       1.47756807       1.72280845
C       -2.49143224       2.50103441       2.49207643
C       -1.10519367       2.69822216       2.46104737
C       -0.30150442       1.88816563       1.65253738
C       -3.38450184       3.34334742       3.34993960
N       -4.43519079       2.76444327       3.86159722
N       -5.28722168       3.54017436       4.60800758
C       -5.37472389       4.90986883       4.66258414
S       -4.32609635       5.91116235       3.73750943
C       -2.93513610       4.77360715       3.61802332
N       -6.36429067       5.29385169       5.42547121
N       -6.97033506       4.15467937       5.89516089
C       -6.33513688       3.09652278       5.40788503
C       -6.71631536       1.70170627       5.66202045
C       -5.79829443       0.64175625       5.63187881
C       -6.20824284      -0.67097161       5.89312294
C       -7.54197427      -0.93431095       6.19380289
Br      -8.09365725      -2.70690471       6.54627266
C       -8.46861392       0.10222597       6.24148693
C       -8.05419804       1.41208459       5.98103264
H       -2.71471453      -0.11590418       0.31830017
H       -4.13735832       1.30406193       1.74281973
H       -0.62313250       3.45879687       3.06908205
H        0.77451835       2.04524755       1.63518118
H       -2.28268054       5.13540253       2.81897342
H       -2.37506502       4.78622189       4.55899540
H       -4.74679717       0.81577794       5.41825261
H       -5.47760488      -1.47521511       5.86364127
H       -9.51065506      -0.09136551       6.48168721
H       -8.78903794       2.21558331       6.02728202
C        0.88152348      -0.88152348       0.88152348
C        2.13813377      -1.27698212       0.42819360
C        2.94387979      -2.08217465       1.23721255
C        2.48897431      -2.49949842       2.49607035
C        1.22872097      -2.08804271       2.94769952
C        0.42479262      -1.28025474       2.13716008
C        3.38150843      -3.35897854       3.33730188
N        4.66654170      -3.16300698       3.23168260
N        5.49535104      -3.97953745       3.96051513
C        5.20404449      -5.17796987       4.56516249
S        3.62474257      -5.85532648       4.49469909
C        2.70255786      -4.32031960       4.30388911
N        6.26948138      -5.71175856       5.10237362
N        7.31406152      -4.85724000       4.84887380
C        6.86212595      -3.81658195       4.16083679
C        7.69455813      -2.70810581       3.67737814
C        7.19461350      -1.41553551       3.46178049
C        8.03143117      -0.38779963       3.01116336
C        9.38010238      -0.64336724       2.77799659
Br      10.50833276       0.74511304       2.16980548
C        9.90157529      -1.91449805       2.99625348
C        9.06207184      -2.93764374       3.44759969
H        2.50065519      -0.96467658      -0.54822123
H        3.92485874      -2.38448622       0.87489501
H        0.85682808      -2.36341182       3.93077153
H       -0.55171983      -0.96241587       2.49521434
H        1.69917321      -4.58093978       3.95694350
H        2.61807875      -3.82518797       5.27701559
H        6.15086051      -1.17852460       3.65144261
H        7.62000028       0.60556387       2.85159463
H       10.95407655      -2.12311281       2.82378740
H        9.48445744      -3.92738419       3.62006163
