158
Properties=species:S:1:pos:R:3 pbc="F F F"
C        1.79142751       1.79142751      -1.79142751
C        1.29891599       2.27083350      -3.00327207
C        2.10664174       3.07879675      -3.80754058
C        3.41045600       3.39980047      -3.40399867
C        3.89302662       2.92205215      -2.17909651
C        3.08200624       2.11529459      -1.37461868
C        4.24602717       4.27140804      -4.29006571
N        3.62344255       5.18304419      -4.98445662
N        4.37364165       5.95379638      -5.83767766
C        5.64416142       5.72558497      -6.30714254
S        6.53837973       4.33609330      -5.83000717
C        5.75463569       4.07145852      -4.23038443
N        6.00420784       6.63895229      -7.17016551
N        4.94708820       7.50620391      -7.29659527
C        3.96169419       7.10263871      -6.50492387
C        2.65380082       7.76052907      -6.39542427
C        1.86319191       7.69993091      -5.23851874
C        0.62733400       8.35458780      -5.17818443
C        0.17369567       9.08251979      -6.27496283
C        0.94573612       9.16715914      -7.42914363
C        2.18014928       8.51256954      -7.48430852
H        0.29149854       2.02495163      -3.33037242
H        1.71219975       3.44993554      -4.75181676
H        4.88532340       3.17765700      -1.81774310
H        3.46229266       1.74982293      -0.42350687
H        6.00275793       3.05713493      -3.90687570
H        6.16583899       4.78025764      -3.50389776
H        2.19643401       7.15529727      -4.35880851
H        0.03310127       8.29249990      -4.27014195
H        0.60415823       9.73809906      -8.28843154
H        2.77765432       8.59164738      -8.39231365
C       -1.09776768       9.75554713      -6.21159773
C       -2.16261824      10.31920753      -6.15852946
Br      -3.88439153      11.23059872      -6.07272256
C       -1.79142751      -1.79142751      -1.79142751
C       -1.67231943      -1.72288365      -3.17781848
C       -2.47871258      -2.53172160      -3.98254489
C       -3.41085691      -3.40262399      -3.40077425
C       -3.51585855      -3.47239372      -2.00592300
C       -2.70613307      -2.66347572      -1.20231071
C       -4.25560577      -4.25722097      -4.29467418
N       -3.71762896      -4.66149443      -5.41181997
N       -4.50034398      -5.40321946      -6.26155226
C       -5.86665027      -5.54423541      -6.26600325
S       -6.85141889      -4.75660594      -5.09645538
C       -5.63262441      -4.64875720      -3.77509703
N       -6.26750468      -6.26732910      -7.27849187
N       -5.14436587      -6.62013648      -7.98538504
C       -4.07868600      -6.10376268      -7.38680808
C       -2.69944712      -6.23890457      -7.87140247
C       -1.58412605      -6.19542663      -7.02208888
C       -0.28811422      -6.34135820      -7.53063382
C       -0.09670885      -6.53894816      -8.89552127
C       -1.18819074      -6.59777453      -9.75607362
C       -2.48099506      -6.45271798      -9.24331430
H       -0.95714296      -1.04789903      -3.64178060
H       -2.37700223      -2.47223037      -5.06471945
H       -4.20241336      -4.15941975      -1.51889039
H       -2.79121714      -2.72460330      -0.11980201
H       -5.99933960      -3.91859706      -3.04883191
H       -5.54816624      -5.62187783      -3.27995032
H       -1.70010215      -6.06071455      -5.94972309
H        0.56001963      -6.30393452      -6.85182822
H       -1.05041644      -6.75822645     -10.82204594
H       -3.32761303      -6.50652287      -9.92747945
C        1.23698888      -6.68898276      -9.41738330
C        2.35396073      -6.81463673      -9.85444275
Br       4.16000974      -7.01780857     -10.56113092
C       -1.79142751       1.79142751       1.79142751
C       -3.16323770       1.55635758       1.85342628
C       -3.96778033       2.36309654       2.66210220
C       -3.40150302       3.41094715       3.40180498
C       -2.01996727       3.63279234       3.34141567
C       -1.21624764       2.82264834       2.53302353
C       -4.29427157       4.25262286       4.26060649
N       -5.32450276       3.66425064       4.80218996
N       -6.17704290       4.43804402       5.55002877
C       -6.28898350       5.80669115       5.58121429
S       -5.27621130       6.80958584       4.61868306
C       -3.86675556       5.69558279       4.49414030
N       -7.27142907       6.18666533       6.35523125
N       -7.84751658       5.04555040       6.85682042
C       -7.20175527       3.99028742       6.37721407
C       -7.55223471       2.59371187       6.66380757
C       -6.61536983       1.55031673       6.63595500
C       -6.99600582       0.23540902       6.92869140
C       -8.31890082      -0.04659383       7.25887130
C       -9.26362604       0.97356499       7.30484786
C       -8.87845635       2.28570065       7.01287035
H       -3.61573277       0.75040855       1.28068128
H       -5.03829254       2.17041044       2.70524907
H       -1.54111202       4.41321140       3.92640009
H       -0.14382722       2.99899353       2.49280170
H       -3.23583169       6.05430854       3.67662833
H       -3.28993475       5.73590927       5.42415037
H       -5.57136380       1.73949942       6.39967657
H       -6.25120214      -0.55577419       6.90031516
H      -10.29733031       0.76548578       7.56787273
H       -9.62714065       3.07637438       7.05810032
C       -8.70915603      -1.39963155       7.55985269
C       -9.03599477      -2.53280064       7.81192461
Br      -9.56446538      -4.36503922       8.21950359
C        1.79142751      -1.79142751       1.79142751
C        3.12906217      -1.45547225       1.98848714
C        3.93346746      -2.26254896       2.79696265
C        3.40228487      -3.41090920       3.40106108
C        2.05373578      -3.73463019       3.20580931
C        1.24983520      -2.92413097       2.39795334
C        4.29336348      -4.25003223       4.26410522
N        5.22391445      -3.63089801       4.93613090
N        6.07796217      -4.39629171       5.69086181
C        6.30344181      -5.74957284       5.62387429
S        5.45865692      -6.74315541       4.50266787
C        3.97346942      -5.73676073       4.34624849
N        7.25086997      -6.11583257       6.44662311
N        7.68633430      -4.97994721       7.08360588
C        6.99259107      -3.94161953       6.63504616
C        7.19906731      -2.55138015       7.05930668
C        6.18171008      -1.58624129       7.03369020
C        6.42462306      -0.27527392       7.46020926
C        7.68860281       0.08057971       7.92315519
C        8.71036164      -0.86240809       7.96926916
C        8.46264947      -2.17104297       7.54333490
H        3.55474899      -0.57056094       1.52151267
H        4.97693284      -1.99075136       2.94626784
H        1.59872748      -4.59729842       3.68469760
H        0.20285085      -3.18009729       2.25267431
H        3.44161845      -6.07289460       3.45225551
H        3.33092474      -5.90145475       5.21761490
H        5.17944425      -1.83600309       6.69509245
H        5.61958588       0.45448604       7.43064327
H        9.69868234      -0.59696792       8.33503857
H        9.27017373      -2.90142966       7.59001196
C        7.93717001       1.42947218       8.36167935
C        8.14534504       2.55916963       8.72894334
Br       8.48194646       4.38579485       9.32277814
C       -0.00445707       0.01189536      -1.78238275
H       -0.66409135       0.67374010      -2.43557963
H        0.65740317      -0.63156657      -2.45157240
C       -0.90989263      -0.90692880      -0.91072765
C        0.90977584       0.90977584      -0.90977584
C       -0.00465871       1.77757030       0.00794375
H       -0.66225468       2.44313916      -0.64384735
H        0.64322798       2.43503045       0.67728295
C       -1.78241447       0.00034974      -0.00472694
H       -2.45427497      -0.65498947       0.64260836
H       -2.43311707       0.67328779      -0.65473579
C       -0.91132561       0.90220522       0.91563759
C       -0.01476271      -0.02253852       1.78660255
H       -0.67934791      -0.69751639       2.42135241
H        0.63392994       0.61504881       2.47327442
C        0.01484550      -1.77751727      -0.01636693
H        0.67870853      -2.42144646      -0.68295456
H       -0.62264859      -2.45592969       0.64226336
C        1.78714474       0.01002794       0.00389507
H        2.44202412       0.67113390       0.66197326
H        2.45385902      -0.65136977      -0.64189061
C        0.91606151      -0.90478549       0.90901405
