193
Properties=species:S:1:pos:R:3 pbc="F F F"
C        0.00000000       0.00000000       0.00000000
C        0.88135235       0.88135235      -0.88135235
C        2.01358045       0.34687682      -1.48434859
C        2.81285882       1.15725268      -2.29821110
C        2.51462698       2.51549865      -2.49078814
C        1.36777032       3.03054866      -1.87112787
C        0.54785261       2.21735223      -1.07941824
N        3.35872854       3.33602706      -3.32221610
C        4.74928184       3.38093748      -3.12163736
S        5.67539028       2.68169551      -1.90600922
N        5.47059058       4.14590709      -4.00110902
C        4.88555591       5.15581303      -4.84557948
H        5.64075763       5.42545585      -5.59126196
C        4.55353334       6.35245805      -3.99145418
C        5.50367637       7.34481253      -3.71225862
C        5.17638321       8.39571069      -2.85465947
C        3.91400144       8.46667240      -2.26795537
C        2.96881073       7.47708350      -2.54187220
C        3.29226071       6.42102070      -3.39191394
O        2.32007777       5.48262867      -3.60343896
C        2.70907874       4.26303847      -4.30892234
C        1.37526730       3.73266870      -4.90416533
C        3.62183621       4.63943099      -5.49376237
H        3.12307265       5.44140912      -6.05522344
C        3.90839879       3.50297436      -6.46723288
O        3.71840353       2.32888325      -6.14026951
N        4.37991319       3.81694884      -7.73975390
C        4.71380657       5.14290404      -8.24128677
C        4.63949912       2.72307107      -8.66827803
H        2.28618628      -0.69436596      -1.33831515
H        3.66776003       0.70420282      -2.79566985
H        1.10273303       4.07969557      -1.96624514
H       -0.33713928       2.64267475      -0.61474151
H        6.45151073       4.22812252      -3.75697077
H        6.49869092       7.28758572      -4.14693148
H        3.65986356       9.27811694      -1.59111181
H        1.98756411       7.52002458      -2.07615850
H        1.44325083       2.69173689      -5.23228628
H        1.06991741       4.34184476      -5.76453826
H        0.53925688       3.81499208      -4.20393407
H        4.45394825       5.94437577      -7.55160007
H        4.17883383       5.30971692      -9.18158224
H        5.79134894       5.17881180      -8.42900568
H        4.25303152       1.76545861      -8.31008965
H        5.72049416       2.63630071      -8.81156496
H        4.16106016       2.94772195      -9.62689534
C        6.15584172       9.41099269      -2.56575900
C        6.97613822      10.26129137      -2.32380486
Br       8.30248828      11.63615241      -1.93258547
C       -0.88135235      -0.88135235      -0.88135235
C       -0.41349718      -2.11577991      -1.31552876
C       -1.22916412      -2.92317510      -2.11598338
C       -2.50296012      -2.49539217      -2.52256148
C       -2.95131590      -1.24622272      -2.07190823
C       -2.15136982      -0.44663180      -1.24662145
N       -3.32174067      -3.33681240      -3.35841863
C       -2.81699632      -3.88416368      -4.55069669
S       -1.33984767      -3.61691856      -5.30632878
N       -3.65503827      -4.71756960      -5.24499881
C       -5.07978888      -4.76893048      -5.03822906
H       -5.44384540      -5.66896826      -5.54466177
C       -5.69295150      -3.54181238      -5.66268169
C       -6.03927074      -3.50090021      -7.02057657
C       -6.53322189      -2.31921831      -7.57431317
C       -6.68170198      -1.17575421      -6.79117302
C       -6.33329107      -1.21416739      -5.44030798
C       -5.83251987      -2.38946661      -4.88320887
O       -5.50095341      -2.34818896      -3.55700302
C       -4.77458676      -3.49382322      -3.01262957
C       -5.08001959      -3.44218102      -1.48990072
C       -5.40179573      -4.79134755      -3.56188628
H       -6.48734618      -4.72760023      -3.40475880
C       -4.91265464      -6.07092938      -2.89502201
O       -3.86890116      -6.08087953      -2.23777560
N       -5.67417614      -7.22900663      -3.03343316
C       -6.88406658      -7.38485000      -3.82908080
C       -5.20406517      -8.44548670      -2.38129636
H        0.57598123      -2.46779526      -1.03832145
H       -0.85840181      -3.90431014      -2.40492075
H       -3.91830611      -0.85515232      -2.37521531
H       -2.52652003       0.51532730      -0.90908423
H       -3.28595685      -5.00617442      -6.14447275
H       -5.90681017      -4.38050185      -7.64589609
H       -7.05595142      -0.25093390      -7.22220699
H       -6.43397306      -0.32149865      -4.82827549
H       -4.40085931      -4.06514288      -0.90127181
H       -6.10649051      -3.77698544      -1.29282448
H       -5.04484434      -2.42592095      -1.08741774
H       -7.24552023      -6.44997866      -4.25442519
H       -7.67219859      -7.80301653      -3.19491787
H       -6.67173771      -8.08158311      -4.64584561
H       -4.37797609      -8.26078352      -1.68982017
H       -4.87003791      -9.14717544      -3.15114648
H       -6.02995586      -8.88938417      -1.81633742
C       -6.88354403      -2.27859017      -8.97045920
C       -7.17693883      -2.24456411     -10.13973151
Br      -7.65133340      -2.18954684     -12.03034593
C       -0.88135235       0.88135235       0.88135235
C       -0.37930540       2.07142499       1.39407547
C       -1.19462653       2.87952450       2.19417157
C       -2.50422837       2.49452361       2.52216179
C       -2.98670408       1.28956248       1.99318028
C       -2.18554399       0.49111460       1.16796448
N       -3.32279434       3.33512465       3.35905272
C       -2.85078880       3.80362811       4.59743979
S       -1.42458407       3.43301534       5.40549560
N       -3.68224469       4.64353189       5.29183011
C       -5.09185525       4.77147110       5.02362206
H       -5.43845020       5.66393633       5.55508890
C       -5.78861583       3.54777869       5.56105105
C       -6.20023577       3.46203539       6.89847636
C       -6.77264584       2.28123817       7.37286935
C       -6.93539758       1.18258705       6.53064458
C       -6.52213556       1.26542052       5.20021036
C       -5.94304916       2.43967806       4.72246813
O       -5.55135832       2.44267440       3.41211268
C       -4.74909947       3.57609097       2.95584912
C       -4.98422292       3.60772953       1.42014887
C       -5.34236741       4.87570040       3.53696176
H       -6.42104562       4.87050114       3.32815845
C       -4.76499010       6.15952179       2.95409412
O       -3.69194808       6.14977303       2.34583517
N       -5.47915477       7.34487619       3.11258497
C       -6.71703804       7.52167111       3.85928823
C       -4.92431134       8.56596568       2.54057121
H        0.63705092       2.38842209       1.17876430
H       -0.79403141       3.82799195       2.54560934
H       -3.98361698       0.93135266       2.23370411
H       -2.58735452      -0.43581684       0.76873928
H       -3.34344858       4.87347189       6.21968355
H       -6.05791820       4.30526913       7.57002079
H       -7.37096725       0.25798163       6.90014344
H       -6.63396047       0.40704556       4.54274117
H       -4.25056902       4.22382063       0.89288435
H       -5.98407005       3.99923992       1.19299046
H       -4.97596609       2.61014650       0.97207044
H       -7.14002398       6.58668803       4.22321207
H       -7.45462991       8.00482649       3.21067659
H       -6.51232764       8.17001037       4.71682842
H       -4.07563605       8.37381496       1.87912876
H       -4.59572121       9.21561424       3.35702438
H       -5.70169136       9.07345838       1.96052771
C       -7.19005565       2.19424101       8.74829676
C       -7.53963636       2.12138088       9.90021721
Br      -8.10487880       2.00357221      11.76277515
C        0.88135235      -0.88135235       0.88135235
C        1.90345748      -0.31091918       1.63042919
C        2.70252774      -1.12256415       2.44323070
C        2.51673706      -2.51327235       2.49090436
C        1.47973001      -3.06412881       1.72558802
C        0.65803724      -2.25350480       0.93308103
N        3.35972267      -3.33280917       3.32443986
C        4.76042149      -3.24033725       3.25109795
S        5.71749741      -2.35468714       2.19091047
N        5.47233367      -4.01968270       4.12559032
C        4.91411858      -5.14993269       4.82289715
H        5.62492615      -5.42256761       5.60998167
C        4.76884744      -6.28576124       3.84283689
C        5.82754947      -7.16333018       3.56986787
C        5.67369695      -8.15385008       2.59920634
C        4.47793911      -8.27706583       1.89362427
C        3.42485658      -7.40132745       2.16158241
C        3.57505902      -6.40530769       3.12482865
O        2.50527633      -5.57684604       3.32402303
C        2.71758557      -4.39956794       4.16388604
C        1.29439038      -4.04237099       4.67533995
C        3.55725179      -4.80557480       5.39220298
H        3.08934816      -5.69586774       5.83448931
C        3.65287195      -3.74443374       6.48130033
O        3.38291718      -2.56545155       6.23918755
N        4.04154596      -4.13423828       7.76083169
C        4.45353001      -5.46787637       8.17659101
C        4.11819432      -3.11344758       8.79920632
H        2.08937773       0.75880372       1.59956146
H        3.46608394      -0.64668434       3.05486442
H        1.30638720      -4.13630839       1.70597816
H       -0.14074072      -2.70749169       0.35352600
H        6.47385157      -3.99502649       3.96772596
H        6.77229374      -7.06234156       4.09857282
H        4.35898087      -9.04064635       1.12946509
H        2.49508220      -7.48408283       1.60458217
H        1.23699630      -3.03451462       5.09576308
H        0.97496572      -4.75276832       5.44856638
H        0.53231838      -4.13000002       3.89586462
H        4.32906166      -6.22085492       7.40000750
H        3.85833143      -5.76642765       9.04537390
H        5.50983181      -5.42926366       8.46007096
H        3.67614770      -2.16302978       8.48940230
H        5.17028180      -2.94870626       9.04937177
H        3.58290317      -3.46626902       9.68650526
C        6.76444079      -9.05076487       2.31738775
C        7.67793877      -9.80193100       2.08136467
Br       9.15498773     -11.01650311       1.69973532
