166
Properties=species:S:1:pos:R:3 pbc="F F F"
C        1.79197059       1.79197059      -1.79197059
C        1.62470477       3.17678280      -1.76954936
C        2.43420887       3.98496511      -2.56841215
C        3.40507235       3.40297956      -3.38043379
O        4.19092634       4.26182936      -4.11758550
C        5.40508828       3.64977291      -4.61385568
C        6.06851041       4.57131557      -5.65695450
C        4.97492822       2.39938548      -5.41019593
C        4.59081532       1.40197646      -4.34643936
H        4.19900224       0.48930174      -4.80971434
N        5.81691913       1.06220641      -3.66334044
C        6.75994288       2.01174416      -3.34894234
S        8.30137577       1.47418829      -2.97127728
N        6.33176935       3.34051689      -3.47464787
C        6.53438188       4.31296004      -2.40135284
C        6.22280571       5.67615716      -2.54222843
C        6.40857900       6.59916391      -1.50182047
C        6.89077269       6.17839348      -0.27127397
C        7.16067684       4.83098337      -0.08570403
Br       7.76420164       4.22549414       1.60291929
C        6.97454872       3.91256292      -1.12629218
C        3.56000819       2.00700925      -3.42867953
C        2.75303685       1.20235515      -2.61441231
H        0.87651717       3.63548691      -1.12846834
H        2.32156419       5.06523221      -2.54207788
H        6.39229531       5.53387275      -5.26173463
H        5.36613112       4.80321474      -6.46644890
H        6.95574173       4.09652405      -6.09179293
H        4.12532312       2.62100806      -6.06951154
H        5.79087536       2.00632728      -6.03111603
H        6.12072203       0.09618681      -3.62243754
H        5.80210781       6.08208759      -3.45279841
H        6.16263934       7.64648013      -1.65944705
H        7.03028240       6.89475167       0.53276114
H        7.14269063       2.86761801      -0.89153507
H        2.87533637       0.12220717      -2.62438602
C       -1.79197059      -1.79197059      -1.79197059
C       -2.22327331      -1.31701221      -3.03075141
C       -3.02251731      -2.12363196      -3.84143686
C       -3.38160591      -3.39817518      -3.40870461
O       -4.14414824      -4.15295125      -4.27324170
C       -4.14650885      -5.56538238      -3.95682564
C       -5.23911352      -6.28400534      -4.77366162
C       -4.60797114      -5.68762734      -2.48891115
C       -3.41035209      -5.23890770      -1.68997135
H       -3.65540880      -5.22068854      -0.62192098
N       -2.39816776      -6.24802691      -1.89627130
C       -2.17748680      -6.81342716      -3.12971541
S       -1.31796322      -8.25096275      -3.17791536
N       -2.78834944      -6.15358778      -4.20499688
C       -2.03846231      -5.80041328      -5.40981918
C       -2.64731577      -5.24541433      -6.54846121
C       -1.91693535      -4.89764816      -7.69497987
C       -0.54127083      -5.07170249      -7.72746683
C        0.09486789      -5.57113023      -6.60110190
Br       1.97787620      -5.76240626      -6.60224643
C       -0.63713178      -5.91758410      -5.45868793
C       -2.97369369      -3.87195224      -2.15005105
C       -2.16065212      -3.06227430      -1.34687789
H       -1.93540997      -0.32791117      -3.37715127
H       -3.34673645      -1.76701454      -4.81512329
H       -5.08745262      -6.24823785      -5.85221221
H       -6.21775298      -5.82259526      -4.59544652
H       -5.29952722      -7.34394461      -4.50058689
H       -5.47761487      -5.04713529      -2.29109255
H       -4.88145784      -6.71866505      -2.22819577
H       -2.00256214      -6.73589945      -1.10088479
H       -3.70800879      -5.03600491      -6.59298010
H       -2.43197888      -4.47994688      -8.55664077
H        0.02134220      -4.79849484      -8.61512028
H       -0.06889113      -6.23955600      -4.59339658
H       -1.81911851      -3.42292084      -0.37989021
C       -1.79197059       1.79197059       1.79197059
C       -1.29455013       3.00321119       2.27327561
C       -2.10083436       3.81410540       3.07264636
C       -3.39738127       3.40917241       3.38193202
O       -4.14922904       4.27339237       4.14771978
C       -5.56962984       3.99902666       4.10006036
C       -6.29650724       4.80501742       5.19525583
C       -5.74768257       2.52270799       4.51411908
C       -5.28685180       1.74561681       3.30676254
H       -5.30664228       0.67088642       3.52048963
N       -6.25918404       2.01076532       2.27251661
C       -6.78207071       3.26625908       2.07229959
S       -8.19152625       3.38174301       1.17357208
N       -6.10995184       4.30349520       2.73348706
C       -5.70019156       5.51840358       2.03009963
C       -5.13094093       6.62211027       2.68814011
C       -4.72884003       7.77836368       2.00235967
C       -4.86105207       7.85556500       0.62382308
C       -5.37361721       6.76326357      -0.05951654
Br      -5.50890628       6.82425840      -1.94638819
C       -5.77433680       5.61102587       0.62804114
C       -3.89488628       2.17736796       2.92344273
C       -3.08492151       1.37428604       2.11059675
H       -0.28779637       3.32829318       2.02438287
H       -1.72610931       4.76706545       3.43569952
H       -6.22524121       5.88595203       5.07670945
H       -5.86961473       4.58512288       6.18105715
H       -7.36518982       4.56184175       5.21702714
H       -5.13919561       2.28105712       5.39558999
H       -6.79344566       2.28489359       4.74997942
H       -6.75780650       1.24189612       1.83964376
H       -4.95185595       6.62986496       3.75527288
H       -4.30196065       8.61209294       2.55451294
H       -4.54586568       8.75055560       0.09585164
H       -6.10409679       4.77236370       0.02538322
H       -3.46296649       0.42863664       1.73032643
C        1.79197059      -1.79197059       1.79197059
C        2.32352016      -1.27420727       2.97330950
C        3.12303478      -2.08015091       3.78440044
C        3.38229804      -3.39657693       3.40961073
O        4.15143402      -4.14557888       4.27332829
C        4.05437077      -5.57128627       4.04305983
C        5.15161194      -6.30688066       4.83828787
C        4.41875280      -5.80443038       2.56132646
C        3.20258767      -5.33045831       1.80618516
H        3.38341615      -5.38782714       0.72677504
N        2.14893813      -6.26331949       2.13020835
C        1.97125704      -6.74331185       3.40606049
S        1.03584096      -8.12131440       3.58968598
N        2.68240169      -6.06143320       4.40309921
C        2.02785280      -5.59572086       5.62512110
C        2.73485417      -5.01459701       6.69174014
C        2.09592059      -4.55876692       7.85487586
C        0.71705182      -4.64739940       7.97598892
C       -0.01323981      -5.17079934       6.91980470
Br      -1.90057588      -5.24777570       7.03957666
C        0.62762965      -5.62518587       5.76058828
C        2.87292699      -3.91570407       2.20706592
C        2.06028934      -3.10545329       1.40406167
H        2.11379548      -0.25144697       3.27522996
H        3.52514934      -1.68893928       4.71478566
H        5.06756156      -6.20074713       5.91959400
H        6.14237562      -5.91622264       4.57719649
H        5.13506378      -7.38234611       4.62664882
H        5.30989865      -5.22984755       2.27609652
H        4.61693339      -6.86324262       2.34814265
H        1.67897222      -6.77088800       1.38948617
H        3.80649116      -4.86735358       6.66314907
H        2.68491978      -4.12456288       8.65908386
H        0.22545390      -4.29071301       8.87610602
H       -0.00915799      -5.96098788       4.95001382
H        1.64109480      -3.49925484       0.48157991
C       -0.00445707       0.01189536      -1.78238275
H       -0.66409135       0.67374010      -2.43557963
H        0.65740317      -0.63156657      -2.45157240
C       -0.90989263      -0.90692880      -0.91072765
C        0.90977584       0.90977584      -0.90977584
C       -0.00465871       1.77757030       0.00794375
H       -0.66225468       2.44313916      -0.64384735
H        0.64322798       2.43503045       0.67728295
C       -1.78241447       0.00034974      -0.00472694
H       -2.45427497      -0.65498947       0.64260836
H       -2.43311707       0.67328779      -0.65473579
C       -0.91132561       0.90220522       0.91563759
C       -0.01476271      -0.02253852       1.78660255
H       -0.67934791      -0.69751639       2.42135241
H        0.63392994       0.61504881       2.47327442
C        0.01484550      -1.77751727      -0.01636693
H        0.67870853      -2.42144646      -0.68295456
H       -0.62264859      -2.45592969       0.64226336
C        1.78714474       0.01002794       0.00389507
H        2.44202412       0.67113390       0.66197326
H        2.45385902      -0.65136977      -0.64189061
C        0.91606151      -0.90478549       0.90901405
