194
Properties=species:S:1:pos:R:3 pbc="F F F"
C        1.79130670       1.79130670      -1.79130670
C        2.82028665       2.53459716      -1.21434186
C        3.63306448       3.34069149      -2.01672013
C        3.42038782       3.39165393      -3.39910795
C        2.37050281       2.65585800      -3.96693623
C        1.55873688       1.85156902      -3.16370986
C        4.26887725       4.21561247      -4.30339344
O        3.76770911       4.67263748      -5.33113725
C        5.73326677       4.41748384      -3.96125176
S        6.73455422       3.54413947      -5.19472415
C        8.33678040       3.94195355      -4.58907681
N        8.78396383       3.22468879      -3.60143779
C       10.11620426       3.49299104      -3.26356530
C       10.81330651       2.81118629      -2.24087095
C       12.13087390       3.22246912      -2.18220394
S       12.48362004       4.43558847      -3.35126275
C       10.89110212       4.39999503      -3.93264181
C       10.39641221       5.19812782      -5.01888557
O       11.06812888       5.97786218      -5.69397546
N        9.04769115       4.93507216      -5.27157444
N        8.41372473       5.71686799      -6.26007465
C        7.65135054       6.79123753      -5.84811691
O        7.60025777       7.16912375      -4.67947683
C        6.82004721       7.45105598      -6.89437382
C        6.28347633       8.71758810      -6.62391554
C        5.43881425       9.33818675      -7.54733047
C        5.12190338       8.69618875      -8.74399496
C        5.64391260       7.43159276      -9.00758406
Br       5.19295065       6.54792780     -10.61800437
C        6.48422937       6.80066126      -8.08988177
H        2.99558695       2.49718080      -0.14179575
H        4.40797333       3.92927059      -1.53444643
H        2.18665597       2.70062918      -5.03958687
H        0.75349582       1.27959376      -3.61777592
H        5.99067581       4.04265798      -2.97099143
H        5.92417920       5.49211396      -3.97164859
H       10.38981668       2.05079567      -1.59716411
H       12.90811110       2.86941488      -1.51762851
H        8.69597150       5.55910195      -7.21839539
H        6.50658006       9.21877506      -5.68328348
H        5.01670298      10.31590968      -7.32658338
H        4.45636142       9.18051595      -9.45424903
H        6.82628677       5.79262782      -8.30144501
C       -1.79130670      -1.79130670      -1.79130670
C       -1.31919094      -2.21812139      -3.03191333
C       -2.12019113      -3.02837536      -3.84190962
C       -3.38987959      -3.41950874      -3.40176137
C       -3.86328595      -2.96871529      -2.16129580
C       -3.06203761      -2.15845583      -1.35352232
C       -4.27585792      -4.29872548      -4.21329976
O       -5.49582300      -4.17555113      -4.10010970
C       -3.65112191      -5.35357764      -5.10730282
S       -4.05403757      -6.98717999      -4.43220028
C       -3.24711351      -7.99252634      -5.62817092
N       -1.96620731      -8.16045721      -5.48342590
C       -1.41101887      -9.08470443      -6.37703730
C       -0.04396720      -9.44230545      -6.37909110
C        0.20635667     -10.43208402      -7.30981960
S       -1.21376751     -10.88738939      -8.16931437
C       -2.15123864      -9.77697010      -7.29553022
C       -3.56478274      -9.58718180      -7.46146106
O       -4.28536795     -10.22959340      -8.22500517
N       -4.05372135      -8.61103152      -6.58958487
N       -5.41598733      -8.26465533      -6.71002470
C       -5.73631607      -7.12869642      -7.42569249
O       -4.90781575      -6.47990714      -8.06113546
C       -7.15244313      -6.67210137      -7.34093251
C       -7.61184092      -5.73564094      -8.27749811
C       -8.90955678      -5.22645226      -8.18832244
C       -9.75445741      -5.64621584      -7.16141384
C       -9.29412706      -6.56669334      -6.22226902
Br     -10.42974397      -7.11617172      -4.81296714
C       -7.99815747      -7.07752123      -6.29909369
H       -0.33205910      -1.92289121      -3.37961319
H       -1.73587799      -3.32127095      -4.81454141
H       -4.85606996      -3.25455536      -1.81624670
H       -3.43781893      -1.82277472      -0.39027186
H       -2.56770933      -5.25992191      -5.17669399
H       -4.06306992      -5.21616844      -6.10870339
H        0.71207014      -9.02097242      -5.72887417
H        1.14867701     -10.91737310      -7.52645840
H       -6.09171928      -8.95985336      -6.42189620
H       -6.95364181      -5.38433423      -9.07066256
H       -9.25616914      -4.49166129      -8.91136560
H      -10.76009661      -5.23895459      -7.09207520
H       -7.65353886      -7.74826328      -5.51855746
C       -1.79130670       1.79130670       1.79130670
C       -3.07675727       2.12552476       1.36694364
C       -3.88991464       2.92925151       2.17130995
C       -3.41717290       3.38768603       3.40629077
C       -2.11591108       3.06242857       3.81495739
C       -1.30436068       2.25996793       3.00968715
C       -4.24761781       4.22786337       4.31240198
O       -3.68418222       5.03438483       5.05291679
C       -5.75103143       4.02436561       4.33660534
S       -6.20735928       3.32171805       5.94434051
C       -7.94703305       3.20439136       5.71638636
N       -8.38234639       2.17458057       5.05316345
C       -9.77803168       2.06211351       5.03261542
C      -10.46536378       1.00470801       4.39529196
C      -11.82737614       1.10394407       4.60422674
S      -12.23933104       2.48335839       5.54778183
C      -10.60983838       2.93337444       5.68052614
C      -10.13082408       4.07531015       6.40729137
O      -10.83047647       4.84964945       7.05984060
N       -8.73862937       4.17354685       6.34216152
N       -8.14433618       5.30299718       6.94333401
C       -7.79636271       6.36331282       6.13102945
O       -8.09015736       6.41998086       4.93872012
C       -6.97194101       7.43401865       6.75951735
C       -6.85829220       8.66610817       6.10057960
C       -6.03630389       9.67007794       6.61794965
C       -5.32012407       9.44822885       7.79373418
C       -5.42199323       8.21915402       8.44194217
Br      -4.42991740       7.90711735      10.02184808
C       -6.23596848       7.20786619       7.93093772
H       -3.45379661       1.76971253       0.41105436
H       -4.87548848       3.19542353       1.80077834
H       -1.73275081       3.42696302       4.76715819
H       -0.30045703       2.00823012       3.34217835
H       -6.09893633       3.35561689       3.54977201
H       -6.21354216       4.99969065       4.17470895
H       -9.99812128       0.20555768       3.83409749
H      -12.60324356       0.43450209       4.25740884
H       -8.17009271       5.35006529       7.95331084
H       -7.39583809       8.84261902       5.17018149
H       -5.94360923      10.61967464       6.09591217
H       -4.67479761      10.23030411       8.18602468
H       -6.24713533       6.24384906       8.42937522
C        1.79130670      -1.79130670       1.79130670
C        1.41702813      -2.04117482       3.11102271
C        2.21809944      -2.85045086       3.92192581
C        3.38827296      -3.41803078       3.40484596
C        3.76618620      -3.14456671       2.08254413
C        2.96511088      -2.33504118       1.27386370
C        4.26684262      -4.30459229       4.21644824
O        5.47351219      -4.32603790       3.97193374
C        3.64265004      -5.19309237       5.27625996
S        3.80847774      -6.91883732       4.74610278
C        3.04161690      -7.70911185       6.11708202
N        1.74232610      -7.75053656       6.11722775
C        1.19965357      -8.51740695       7.15570009
C       -0.18747742      -8.72279190       7.33004927
C       -0.43092745      -9.58391311       8.38256129
S        1.02268256     -10.10431701       9.14347170
C        1.96388287      -9.19276961       8.06708647
C        3.39882361      -9.14202956       8.07257243
O        4.13170268      -9.78108112       8.82718271
N        3.88338224      -8.31450686       7.05644864
N        5.27796038      -8.10774085       7.00496614
C        5.78341514      -6.94874843       7.55854141
O        5.09604844      -6.15501594       8.19779397
C        7.21980208      -6.65882884       7.28684609
C        7.86729244      -5.69069379       8.06699374
C        9.19119518      -5.33633926       7.79679703
C        9.87472663      -5.94351958       6.74384088
C        9.22759555      -6.89599367       5.95950019
Br      10.14460766      -7.70037146       4.51390371
C        7.90392141      -7.25336579       6.21748520
H        0.50699600      -1.60813214       3.51943536
H        1.91471850      -3.00353089       4.95344096
H        4.68301469      -3.56867352       1.67518380
H        3.26524818      -2.13779228       0.24782504
H        2.58750660      -4.97621887       5.44059975
H        4.17216357      -5.00397746       6.21180073
H       -0.96474273      -8.28753790       6.71498129
H       -1.38708726      -9.94069603       8.74154573
H        5.84730880      -8.89689454       6.72926551
H        7.33643838      -5.19431142       8.87788881
H        9.68425974      -4.57634902       8.39858728
H       10.90187184      -5.65640250       6.53285206
H        7.41285430      -7.95582561       5.55167970
C       -0.00445707       0.01189536      -1.78238275
H       -0.66409135       0.67374010      -2.43557963
H        0.65740317      -0.63156657      -2.45157240
C       -0.90989263      -0.90692880      -0.91072765
C        0.90977584       0.90977584      -0.90977584
C       -0.00465871       1.77757030       0.00794375
H       -0.66225468       2.44313916      -0.64384735
H        0.64322798       2.43503045       0.67728295
C       -1.78241447       0.00034974      -0.00472694
H       -2.45427497      -0.65498947       0.64260836
H       -2.43311707       0.67328779      -0.65473579
C       -0.91132561       0.90220522       0.91563759
C       -0.01476271      -0.02253852       1.78660255
H       -0.67934791      -0.69751639       2.42135241
H        0.63392994       0.61504881       2.47327442
C        0.01484550      -1.77751727      -0.01636693
H        0.67870853      -2.42144646      -0.68295456
H       -0.62264859      -2.45592969       0.64226336
C        1.78714474       0.01002794       0.00389507
H        2.44202412       0.67113390       0.66197326
H        2.45385902      -0.65136977      -0.64189061
C        0.91606151      -0.90478549       0.90901405
