181
Properties=species:S:1:pos:R:3 pbc="F F F"
C        0.00000000       0.00000000       0.00000000
C        0.88140268       0.88140268      -0.88140268
C        1.91038263       1.62469313      -0.30443783
C        2.72316046       2.43078747      -1.10681611
C        2.51048380       2.48174991      -2.48920392
C        1.46059878       1.74595398      -3.05703220
C        0.64883286       0.94166499      -2.25380583
C        3.35897323       3.30570844      -3.39348942
O        2.85780509       3.76273346      -4.42123323
C        4.82336275       3.50757982      -3.05134773
S        5.82465020       2.63423544      -4.28482013
C        7.42687638       3.03204953      -3.67917279
N        7.87405981       2.31478477      -2.69153376
C        9.20630024       2.58308701      -2.35366128
C        9.90340248       1.90128226      -1.33096693
C       11.22096987       2.31256509      -1.27229991
S       11.57371602       3.52568445      -2.44135873
C        9.98119810       3.49009100      -3.02273779
C        9.48650818       4.28822380      -4.10898155
O       10.15822485       5.06795815      -4.78407144
N        8.13778713       4.02516813      -4.36167041
N        7.50382071       4.80696396      -5.35017062
C        6.74144651       5.88133351      -4.93821288
O        6.69035374       6.25921972      -3.76957281
C        5.91014318       6.54115196      -5.98446980
C        5.37357231       7.80768408      -5.71401151
C        4.52891022       8.42828273      -6.63742645
C        4.21199936       7.78628473      -7.83409093
C        4.73400857       6.52168874      -8.09768004
C        5.57432534       5.89075723      -7.17997774
H        2.08568292       1.58727678       0.76810828
H        3.49806930       3.01936657      -0.62454240
H        1.27675194       1.79072515      -4.12968285
H       -0.15640820       0.36968974      -2.70787190
H        5.08077179       3.13275395      -2.06108741
H        5.01427518       4.58220994      -3.06174456
H        9.47991265       1.14089165      -0.68726008
H       11.99820708       1.95951085      -0.60772449
H        7.78606748       4.64919793      -6.30849136
H        5.59667603       8.30887104      -4.77337946
H        4.10679896       9.40600565      -6.41667936
H        3.54645740       8.27061193      -8.54434500
H        5.91638275       4.88272380      -7.39154099
C        4.39068676       5.84894582      -9.32370903
C        4.10315474       5.28552362     -10.35050831
Br       3.63823979       4.37451759     -12.01075591
C       -0.88140268      -0.88140268      -0.88140268
C       -0.33501603      -1.49839388      -2.00610368
C       -1.13615911      -2.30959003      -2.81501489
C       -2.48221149      -2.51063125      -2.48859489
C       -3.02703770      -1.86984237      -1.36670490
C       -2.22541532      -1.05892829      -0.55996007
C       -3.37521755      -3.38117799      -3.30177554
O       -4.57732264      -3.11802648      -3.34642265
C       -2.78840701      -4.59362222      -4.00026107
S       -3.44934922      -6.08503918      -3.20931737
C       -2.64507473      -7.30325686      -4.18976710
N       -1.41516149      -7.58667418      -3.87854267
C       -0.88170922      -8.66279326      -4.59854605
C        0.42639200      -9.15982442      -4.40221926
C        0.65498914     -10.27298146      -5.18784255
S       -0.71058285     -10.67442877      -6.15574758
C       -1.59755442      -9.37662524      -5.51984722
C       -2.95364845      -9.06017665      -5.86988843
O       -3.66052535      -9.70861892      -6.64111017
N       -3.41329177      -7.94232256      -5.16901133
N       -4.70511438      -7.47128475      -5.48455616
C       -4.81262758      -6.40004725      -6.34831808
O       -3.85141574      -5.92117816      -6.94655238
C       -6.16623925      -5.79037691      -6.47914877
C       -6.41132897      -4.92750516      -7.55643377
C       -7.64229016      -4.27782405      -7.67450519
C       -8.63390148      -4.48277145      -6.71570209
C       -8.38628223      -5.32965498      -5.63744014
C       -7.15853621      -5.97931871      -5.50720541
H        0.71102190      -1.35148893      -2.26438440
H       -0.68888801      -2.75359541      -3.69949485
H       -4.07727414      -2.00719249      -1.11269331
H       -2.65824363      -0.57467281       0.31176302
H       -1.70024753      -4.62315606      -3.95120956
H       -3.07380102      -4.53241232      -5.05201634
H        1.15418663      -8.74674741      -3.71550360
H        1.55120887     -10.87670387      -5.23994742
H       -5.48442838      -8.05288275      -5.20644565
H       -5.63669773      -4.74304738      -8.29918142
H       -7.82216296      -3.60083869      -8.50648231
H       -9.58634431      -3.96676953      -6.80830049
H       -6.97914161      -6.58608569      -4.62542023
C       -9.40196885      -5.52570381      -4.63566894
C      -10.25260640      -5.68989471      -3.79668556
Br     -11.62801538      -5.95537750      -2.44012040
C       -0.88140268       0.88140268       0.88140268
C       -1.98867576       1.52301424       0.32782360
C       -2.80165124       2.32846881       1.13064399
C       -2.50992451       2.48049899       2.49101413
C       -1.38285625       1.84702542       3.03370329
C       -0.57105531       1.04325409       2.22999428
C       -3.35348849       3.30812333       3.39655927
O       -2.82170097       3.85929860       4.36077220
C       -4.84571550       3.39925229       3.13732251
S       -5.71306081       2.54801132       4.48263364
C       -7.37097912       2.80917200       3.95794758
N       -7.82992298       2.00457578       3.04587957
C       -9.19450644       2.17009930       2.77844279
C       -9.90678112       1.38355297       1.84531759
C      -11.24910844       1.71025657       1.84646987
S      -11.60782861       2.97229676       2.96063382
C       -9.98422312       3.06982014       3.43998363
C       -9.47720214       3.96413970       4.44237169
O      -10.15562924       4.74367258       5.11095262
N       -8.10166026       3.79938172       4.62358368
N       -7.46073339       4.67954747       5.52067443
C       -6.79484020       5.76924732       4.99690539
O       -6.83840931       6.07395142       3.80678555
C       -5.94605881       6.54347086       5.94623526
C       -5.50888572       7.82006770       5.56631448
C       -4.65167450       8.54816429       6.39478062
C       -4.22293481       8.00429333       7.60514688
C       -4.64613951       6.73006121       7.97717662
C       -5.49801735       5.99229863       7.15474434
H       -2.22540437       1.40655584      -0.72710879
H       -3.64023866       2.83730639       0.66443323
H       -1.13807854       1.97133088       4.08775052
H        0.29498812       0.55097499       2.66516656
H       -5.13769245       2.94701666       2.18990404
H       -5.10404289       4.45891463       3.09527216
H       -9.47497248       0.61036988       1.22272202
H      -12.04071254       1.26929151       1.25543836
H       -7.67416125       4.56675126       6.50284426
H       -5.81977144       8.24569945       4.61345563
H       -4.30704505       9.53336609       6.08907282
H       -3.54824904       8.57223055       8.24093475
H       -5.76151463       4.98112989       7.44800301
C       -4.18735729       6.15903180       9.21695252
C       -3.80312718       5.68079466      10.25526483
Br      -3.18185959       4.90752566      11.93412803
C        0.88140268      -0.88140268       0.88140268
C        0.29319713      -1.71100047       1.83531599
C        1.09479269      -2.52310463       2.64286671
C        2.48539061      -2.51102897       2.48501805
C        3.06840575      -1.65862663       1.53655258
C        2.26611422      -0.84715982       0.73102965
C        3.38500569      -3.37084743       3.30231796
O        4.52424010      -2.97183535       3.54569632
C        2.89198534      -4.73118181       3.75912315
S        3.84567312      -6.00605447       2.89197818
C        3.10535913      -7.43785398       3.59488560
N        1.97413519      -7.82304993       3.08319322
C        1.51194154      -9.04590374       3.58520325
C        0.31961432      -9.66655884       3.14947852
C        0.15416032     -10.89776394       3.75391062
S        1.43397376     -11.26049706       4.84628838
C        2.20244591      -9.78838230       4.50319868
C        3.44833499      -9.36074074       5.07463779
O        4.13922582     -10.01915372       5.85187490
N        3.82985053      -8.10853969       4.58623545
N        4.99525873      -7.53201652       5.13368004
C        4.84637578      -6.58646887       6.12814825
O        3.76212161      -6.31643087       6.64059380
C        6.07572956      -5.84044945       6.51958592
C        6.06501766      -5.11262027       7.71762997
C        7.16982539      -4.34046509       8.08432892
C        8.28978763      -4.28739538       7.25519202
C        8.29590636      -4.99968518       6.05778580
C        7.19573943      -5.76973725       5.67958364
H       -0.78672178      -1.73019334       1.96137987
H        0.60920044      -3.13716388       3.39561396
H        4.15059928      -1.63012650       1.41643417
H        2.73035209      -0.19708438      -0.00628303
H        1.83273063      -4.88610244       3.55578008
H        3.03563443      -4.78268638       4.83990887
H       -0.36936335      -9.25376259       2.42366514
H       -0.64884941     -11.60762348       3.60666835
H        5.87601811      -7.96977517       4.89796349
H        5.18749173      -5.12927144       8.36216336
H        7.15083179      -3.76910253       9.00954965
H        9.14261440      -3.67703364       7.54176629
H        7.21149970      -6.26510056       4.71404727
C        9.44352959      -4.92895039       5.19086163
C       10.40466404      -4.86971001       4.46481263
Br      11.95873716      -4.77392332       3.29085281
