173
Properties=species:S:1:pos:R:3 pbc="F F F"
C        0.00000000       0.00000000       0.00000000
C        0.88140268       0.88140268      -0.88140268
C        1.91038263       1.62469313      -0.30443783
C        2.72316046       2.43078747      -1.10681611
C        2.51048380       2.48174991      -2.48920392
C        1.46059878       1.74595398      -3.05703220
C        0.64883286       0.94166499      -2.25380583
C        3.35897323       3.30570844      -3.39348942
O        2.85780509       3.76273346      -4.42123323
C        4.82336275       3.50757982      -3.05134773
S        5.82465020       2.63423544      -4.28482013
C        7.42687638       3.03204953      -3.67917279
N        7.87405981       2.31478477      -2.69153376
C        9.20630024       2.58308701      -2.35366128
C        9.90340248       1.90128226      -1.33096693
C       11.22096987       2.31256509      -1.27229991
S       11.57371602       3.52568445      -2.44135873
C        9.98119810       3.49009100      -3.02273779
C        9.48650818       4.28822380      -4.10898155
O       10.15822485       5.06795815      -4.78407144
N        8.13778713       4.02516813      -4.36167041
N        7.50382071       4.80696396      -5.35017062
C        6.74144651       5.88133351      -4.93821288
O        6.69035374       6.25921972      -3.76957281
C        5.91014318       6.54115196      -5.98446980
C        5.37357231       7.80768408      -5.71401151
C        4.52891022       8.42828273      -6.63742645
C        4.21199936       7.78628473      -7.83409093
C        4.73400857       6.52168874      -8.09768004
Br       4.28304663       5.63802378      -9.70810035
C        5.57432534       5.89075723      -7.17997774
H        2.08568292       1.58727678       0.76810828
H        3.49806930       3.01936657      -0.62454240
H        1.27675194       1.79072515      -4.12968285
H       -0.15640820       0.36968974      -2.70787190
H        5.08077179       3.13275395      -2.06108741
H        5.01427518       4.58220994      -3.06174456
H        9.47991265       1.14089165      -0.68726008
H       11.99820708       1.95951085      -0.60772449
H        7.78606748       4.64919793      -6.30849136
H        5.59667603       8.30887104      -4.77337946
H        4.10679896       9.40600565      -6.41667936
H        3.54645740       8.27061193      -8.54434500
H        5.91638275       4.88272380      -7.39154099
C       -0.88140268      -0.88140268      -0.88140268
C       -0.41344514      -1.29953541      -2.12653304
C       -1.21444425      -2.10974366      -2.93657612
C       -2.47988615      -2.50954388      -2.49200760
C       -2.94925620      -2.06743885      -1.24688991
C       -2.14802026      -1.25721261      -0.43907081
C       -3.36552041      -3.38913714      -3.30351353
O       -4.58550172      -3.27273721      -3.18353283
C       -2.74001022      -4.43626799      -4.20601208
S       -3.13122627      -6.07528877      -3.53719073
C       -2.32531739      -7.07046270      -4.74231861
N       -1.04285961      -7.23261235      -4.60490638
C       -0.48755350      -8.14949699      -5.50599803
C        0.88126051      -8.50013205      -5.51678014
C        1.13185257      -9.48390781      -6.45377964
S       -0.29030063      -9.94207229      -7.30838627
C       -1.22892157      -8.84086262      -6.42424270
C       -2.64423200      -8.65742296      -6.58205857
O       -3.36543071      -9.29961939      -7.34520435
N       -3.13366282      -7.68819007      -5.70277278
N       -4.49825694      -7.34813597      -5.81456238
C       -4.82795694      -6.21021579      -6.52282017
O       -4.00598681      -5.55402076      -7.15913871
C       -6.24592530      -5.76125676      -6.42858288
C       -6.71480464      -4.82241981      -7.35804345
C       -8.01460830      -4.32028914      -7.25972197
C       -8.85214703      -4.74952679      -6.23070121
C       -8.38240285      -5.67238951      -5.29858499
Br      -9.50805154      -6.23474908      -3.88637014
C       -7.08427437      -6.17623067      -5.38455528
H        0.57040201      -0.99753906      -2.47771438
H       -0.83360246      -2.39576166      -3.91261416
H       -3.93881631      -2.36006065      -0.89828298
H       -2.52059443      -0.92831941       0.52776040
H       -1.65745156      -4.33675870      -4.28040289
H       -3.15773076      -4.29589286      -5.20460606
H        1.63845228      -8.07825543      -4.86826123
H        2.07550133      -9.96330096      -6.67764278
H       -5.16899281      -8.04820641      -5.52655756
H       -6.06242883      -4.46376768      -8.15273002
H       -8.36860058      -3.58362286      -7.97726052
H       -9.85946702      -4.34773650      -6.15421081
H       -6.73230746      -6.84915046      -4.60918961
C       -0.88140268       0.88140268       0.88140268
C       -2.18435984       1.17447533       0.48067842
C       -2.99749651       1.97799317       1.28527435
C       -2.50680883       2.47753375       2.49709505
C       -1.18864180       2.19341010       2.88153306
C       -0.37716357       1.39109733       2.07604278
C       -3.33568974       3.31955074       3.40293061
O       -2.77462137       4.15707639       4.11007400
C       -4.83269101       3.08097039       3.46862890
S       -5.23334339       2.40707599       5.10328639
C       -6.97457205       2.24284264       4.92068401
N       -7.40030709       1.18709247       4.29297877
C       -8.79292799       1.04096320       4.30915733
C       -9.46924585      -0.04773371       3.71413954
C      -10.82791309       0.02411530       3.95380649
S      -11.25080631       1.41593198       4.87402091
C       -9.63007480       1.90771646       4.95623562
C       -9.16188591       3.07811642       5.64371119
O       -9.86448110       3.85126361       6.29450974
N       -7.77444622       3.20785103       5.54232842
N       -7.19373084       4.36545436       6.10177010
C       -6.89115606       5.41362805       5.25620879
O       -7.21454678       5.43419156       4.07040793
C       -6.07836295       6.51866572       5.83873626
C       -6.01051470       7.73667527       5.14807792
C       -5.20117137       8.77224785       5.62120018
C       -4.45200591       8.59625177       6.78411734
C       -4.50841031       7.38127393       7.46369311
Br      -3.47168894       7.13156628       9.02591553
C       -5.30941523       6.33873355       6.99691154
H       -2.57525921       0.78658210      -0.45698988
H       -3.99781014       2.21151115       0.93265698
H       -0.79192558       2.59007625       3.81515811
H        0.64021159       1.17151384       2.38985118
H       -5.18281650       2.38513890       2.70665776
H       -5.32257294       4.04076983       3.29488691
H       -8.99614563      -0.84898248       3.16090123
H      -11.59526035      -0.67186651       3.64204858
H       -7.19657624       4.43651271       7.11066782
H       -6.57420252       7.87759645       4.22712756
H       -5.14411671       9.71076848       5.07459877
H       -3.81678808       9.40280266       7.14182359
H       -5.28519960       5.38716621       7.51828173
C        0.88140268      -0.88140268       0.88140268
C        0.52998361      -1.09597390       2.21355608
C        1.33109285      -1.90504308       3.02462810
C        2.47810357      -2.50777110       2.49556295
C        2.83358899      -2.26974443       1.16025154
C        2.03252782      -1.46037983       0.35139603
C        3.35509416      -3.39571372       3.30736321
O        4.55563112      -3.44768099       3.03845965
C        2.73517895      -4.24873543       4.39837592
S        2.85406062      -5.98818905       3.90145609
C        2.10013978      -6.73358249       5.30437643
N        0.80056298      -6.74755510       5.33226026
C        0.26419646      -7.48116252       6.39768955
C       -1.12289431      -7.65356750       6.60497849
C       -1.36182128      -8.48741157       7.68024459
S        0.09645884      -9.02254497       8.42175538
C        1.03336996      -8.15352143       7.30713549
C        2.46884896      -8.13298498       7.28187958
O        3.20412676      -8.77162822       8.03449946
N        2.94885280      -7.33706276       6.23871011
N        4.34601002      -7.16089420       6.15405106
C        4.88689414      -6.00163373       6.67246504
O        4.22973458      -5.18051906       7.30889264
C        6.32291195      -5.74778362       6.36506937
C        7.00660702      -4.77761134       7.11104953
C        8.33155363      -4.45694865       6.80611712
C        8.98000246      -5.10006520       5.75230735
C        8.29690180      -6.05467764       5.00179790
Br       9.16636262      -6.90795293       3.55485520
C        6.97186348      -6.37861391       5.29458293
H       -0.36207518      -0.63546330       2.63146330
H        1.04645702      -2.03032401       4.06519725
H        3.73264814      -2.72144480       0.74306700
H        2.31495027      -1.29076761      -0.68456444
H        1.68844987      -4.00628233       4.57988096
H        3.28812270      -4.05153949       5.31856749
H       -1.90380655      -7.21481062       5.99706032
H       -2.31736125      -8.81642975       8.06637392
H        4.89297292      -7.96742379       5.88336006
H        6.50336762      -4.25347247       7.92208644
H        8.85282127      -3.69525765       7.38140504
H       10.00818098      -4.83912121       5.51411214
H        6.45243038      -7.08416534       4.65405181
