198
Properties=species:S:1:pos:R:3 pbc="F F F"
C        1.79192512       1.79192512      -1.79192512
C        1.30383575       3.01000337      -2.25724752
C        2.11174030       3.81670630      -3.06302328
C        3.41140002       3.41373818      -3.41451410
C        3.88132386       2.17838490      -2.93579692
C        3.07549514       1.37241603      -2.12650702
C        4.25770444       4.30638923      -4.30783080
H        3.69296658       5.23370642      -4.47951335
C        4.51993267       3.64882396      -5.65591105
C        5.32053195       4.61227850      -6.49271201
O        4.96283593       4.87702589      -7.63923676
C        6.62779567       5.11000015      -5.87230496
H        7.25440535       4.21089048      -5.78946016
C        7.40699049       6.13597205      -6.74850078
C        7.90010281       5.52066852      -8.06423577
C        6.65769548       7.44399559      -7.01910721
C        6.29584396       5.63886971      -4.44649213
H        5.67091507       6.53482624      -4.56129102
N        5.51184649       4.68104382      -3.64795924
C        7.51489814       6.04148352      -3.62080562
C        7.44943744       7.19547208      -2.81997018
C        8.53662769       7.58876201      -2.03493279
C        9.69991073       6.82544846      -2.03665851
Br      11.17460991       7.35711749      -0.98055751
C        9.78133280       5.66764284      -2.80543143
C        8.69046463       5.27187743      -3.58489261
H        0.30179874       3.34282123      -1.99889753
H        1.71490843       4.76733260      -3.41411804
H        4.88136506       1.83180297      -3.18370150
H        3.45991042       0.42360503      -1.76229087
H        3.57705364       3.42634511      -6.16878892
H        5.08443004       2.71287410      -5.57280014
H        8.31817889       6.41096174      -6.20245844
H        7.08605712       5.32788018      -8.76786257
H        8.42747944       4.57852971      -7.88174586
H        8.60247072       6.19979181      -8.56094676
H        5.71876750       7.28142657      -7.55470693
H        7.27136958       8.11575144      -7.62973038
H        6.43261665       7.97587959      -6.09009008
H        6.07402333       3.85873142      -3.43888836
H        6.53983316       7.79342449      -2.79464420
H        8.46037980       8.48487381      -1.42471171
H       10.68492519       5.06431974      -2.80147479
H        8.77807232       4.35508360      -4.16093172
C       -1.79192512      -1.79192512      -1.79192512
C       -2.92125766      -1.25006572      -2.39976326
C       -3.72683692      -2.05728945      -3.20734351
C       -3.41508776      -3.41221772      -3.41234683
C       -2.27191194      -3.93799084      -2.78560290
C       -1.46319692      -3.13049826      -1.98072301
C       -4.32251327      -4.26747381      -4.28193739
H       -5.09298940      -3.60770773      -4.70548921
C       -5.01495544      -5.34765634      -3.46205591
C       -5.92533348      -6.11609716      -4.38409181
O       -7.09893893      -6.30906801      -4.07109163
C       -5.26436561      -6.72132397      -5.62441120
H       -4.56110814      -7.46659829      -5.22704957
C       -6.24421246      -7.47257213      -6.57467873
C       -6.86026665      -8.71175022      -5.91299024
C       -7.33962958      -6.59446129      -7.18670740
C       -4.46659862      -5.58557811      -6.32902907
H       -5.19379355      -4.85839847      -6.71484029
N       -3.58504587      -4.84779368      -5.40800999
C       -3.61873179      -6.04698016      -7.51147534
C       -3.55610019      -5.24438301      -8.66439650
C       -2.77721536      -5.62136577      -9.76174135
C       -2.04495355      -6.80346272      -9.71360143
Br      -0.99468171      -7.31968175     -11.19792145
C       -2.07470428      -7.60441180      -8.57529099
C       -2.84895909      -7.22244571      -7.47582987
H       -3.18282514      -0.20485891      -2.25583345
H       -4.60327571      -1.61550821      -3.67757517
H       -1.99566762      -4.98064880      -2.92055310
H       -0.58078641      -3.55514485      -1.50987506
H       -5.61223924      -4.90146227      -2.65848617
H       -4.31238761      -6.05355725      -3.00415942
H       -5.65556279      -7.86049118      -7.41554510
H       -7.58788637      -8.45536941      -5.13854410
H       -6.08515796      -9.34032853      -5.46226852
H       -7.38377965      -9.31983562      -6.65959402
H       -7.98373902      -6.14429071      -6.42687127
H       -7.97946372      -7.18879439      -7.84859329
H       -6.91488961      -5.78977478      -7.79392193
H       -2.83670812      -5.45479092      -5.08014407
H       -4.10970157      -4.30790694      -8.71029334
H       -2.74587121      -4.98318278     -10.64091134
H       -1.49646632      -8.52320299      -8.53105040
H       -2.83879334      -7.85936914      -6.59592516
C       -1.79192512       1.79192512       1.79192512
C       -1.22135014       2.83878566       2.51095084
C       -2.02907742       3.64581115       3.31658130
C       -3.41157889       3.41325304       3.41482037
C       -3.96463540       2.34843588       2.68243441
C       -3.15826713       1.54294991       1.87320115
C       -4.25905247       4.29832694       4.31454506
H       -3.60645941       5.08940420       4.71032274
C       -4.82411927       3.51134174       5.48920668
C       -5.60799474       4.46604852       6.35147920
O       -5.40696254       4.50806572       7.56407033
C       -6.71613846       5.24947268       5.64448964
H       -7.43962387       4.48363684       5.33149528
C       -7.47679762       6.25634818       6.55831752
C       -8.25637884       5.55242678       7.67620148
C       -6.60708850       7.37589531       7.13781446
C       -6.08822776       5.91022305       4.38275500
H       -5.37198216       6.66882086       4.72622931
N       -5.32597395       4.95839352       3.55648208
C       -7.09021139       6.61492227       3.47205363
C       -6.73698391       7.84289346       2.88500234
C       -7.61798119       8.51155297       2.03078833
C       -8.86068423       7.95335365       1.74797982
Br     -10.05735934       8.85737149       0.59755408
C       -9.22485842       6.72867416       2.30087449
C       -8.33971001       6.05777470       3.14974996
H       -0.15441804       3.03795750       2.45114196
H       -1.56628846       4.46191515       3.86815548
H       -5.02983806       2.13694060       2.73009087
H       -3.60655327       0.72843288       1.31082017
H       -4.01650127       3.07060548       6.08508093
H       -5.49197793       2.69951545       5.17861090
H       -8.24081739       6.74787073       5.94291095
H       -7.60133377       5.13507114       8.44539497
H       -8.87277529       4.74233144       7.27264828
H       -8.92875502       6.26058479       8.17386948
H       -5.79869761       6.99118557       7.76501782
H       -7.21222026       8.04674352       7.75788762
H       -6.16341642       7.98799929       6.34717061
H       -5.95547376       4.27468380       3.14148556
H       -5.76125483       8.28375904       3.08288799
H       -7.32073699       9.45939498       1.58983337
H      -10.19072856       6.28564832       2.07434283
H       -8.64539982       5.09629634       3.55239149
C        1.79192512      -1.79192512       1.79192512
C        2.89870609      -1.24054447       2.43183608
C        3.70427916      -2.04780649       3.23938422
C        3.41508423      -3.41216548       3.41240260
C        2.29451293      -3.94736224       2.75363051
C        1.48574852      -3.13994379       1.94872588
C        4.32221694      -4.26670516       4.28300237
H        5.07149717      -3.60072325       4.73396593
C        5.05104821      -5.31733381       3.45628566
C        5.95844363      -6.08605402       4.38102480
O        7.14133696      -6.25047894       4.08728268
C        5.28583076      -6.72778505       5.59648496
H        4.60490752      -7.47847054       5.17137794
C        6.26179632      -7.47854282       6.55112417
C        6.91434227      -8.69264156       5.87802328
C        7.32805549      -6.59176396       7.20097882
C        4.45283196      -5.62138132       6.30699251
H        5.15825601      -4.88810256       6.72067375
N        3.57482792      -4.88277605       5.38324559
C        3.59169652      -6.12178077       7.46371000
C        3.49148728      -5.34309694       8.63029549
C        2.69928992      -5.75613758       9.70489498
C        1.99120627      -6.95082815       9.61998329
Br       0.92304847      -7.51575576      11.07348068
C        2.05823609      -7.72877588       8.46739511
C        2.84574860      -7.31080092       7.39068515
H        3.14259607      -0.18793694       2.31298449
H        4.56283140      -1.59861498       3.73491270
H        2.03607329      -4.99752721       2.86326902
H        0.62090532      -3.57210894       1.45279205
H        5.65476199      -4.84428474       2.67314094
H        4.37120341      -6.02747014       2.97143073
H        5.66486874      -7.89389910       7.37283123
H        7.65147933      -8.40741541       5.12290513
H        6.16034300      -9.32700727       5.40040475
H        7.43524431      -9.30503399       6.62293098
H        7.97766595      -6.11469710       6.46253795
H        7.96658412      -7.18654278       7.86372449
H        6.87624140      -5.80728675       7.81505817
H        2.84482638      -5.49744719       5.02936955
H        4.02579616      -4.39730056       8.70480513
H        2.63877588      -5.13588645      10.59530301
H        1.49892426      -8.65739610       8.39439935
H        2.86475767      -7.93057050       6.49875947
C       -0.00445707       0.01189536      -1.78238275
H       -0.66409135       0.67374010      -2.43557963
H        0.65740317      -0.63156657      -2.45157240
C       -0.90989263      -0.90692880      -0.91072765
C        0.90977584       0.90977584      -0.90977584
C       -0.00465871       1.77757030       0.00794375
H       -0.66225468       2.44313916      -0.64384735
H        0.64322798       2.43503045       0.67728295
C       -1.78241447       0.00034974      -0.00472694
H       -2.45427497      -0.65498947       0.64260836
H       -2.43311707       0.67328779      -0.65473579
C       -0.91132561       0.90220522       0.91563759
C       -0.01476271      -0.02253852       1.78660255
H       -0.67934791      -0.69751639       2.42135241
H        0.63392994       0.61504881       2.47327442
C        0.01484550      -1.77751727      -0.01636693
H        0.67870853      -2.42144646      -0.68295456
H       -0.62264859      -2.45592969       0.64226336
C        1.78714474       0.01002794       0.00389507
H        2.44202412       0.67113390       0.66197326
H        2.45385902      -0.65136977      -0.64189061
C        0.91606151      -0.90478549       0.90901405
