177
Properties=species:S:1:pos:R:3 pbc="F F F"
C        0.00000000       0.00000000       0.00000000
C        0.88202110       0.88202110      -0.88202110
C        0.39393173       2.10009934      -1.34734350
C        1.20183627       2.90680228      -2.15311925
C        2.50149600       2.50383416      -2.50461007
C        2.97141984       1.26848087      -2.02589290
C        2.16559112       0.46251200      -1.21660299
C        3.34780042       3.39648521      -3.39792677
H        2.78306256       4.32380239      -3.56960933
C        3.61002864       2.73891994      -4.74600703
C        4.41062792       3.70237448      -5.58280798
O        4.05293191       3.96712187      -6.72933273
C        5.71789165       4.20009612      -4.96240094
H        6.34450133       3.30098645      -4.87955614
C        6.49708646       5.22606803      -5.83859675
C        6.99019879       4.61076450      -7.15433174
C        5.74779145       6.53409156      -6.10920319
C        5.38593993       4.72896569      -3.53658810
H        4.76101104       5.62492221      -3.65138699
N        4.60194247       3.77113980      -2.73805521
C        6.60499412       5.13157950      -2.71090160
C        6.53953342       6.28556806      -1.91006616
C        7.62672366       6.67885798      -1.12502876
C        8.79000671       5.91554443      -1.12675449
Br      10.26470589       6.44721346      -0.07065349
C        8.87142878       4.75773882      -1.89552740
C        7.78056061       4.36197340      -2.67498858
H       -0.60810528       2.43291721      -1.08899350
H        0.80500441       3.85742858      -2.50421402
H        3.97146104       0.92189895      -2.27379747
H        2.55000640      -0.48629900      -0.85238684
H        2.66714962       2.51644109      -5.25888490
H        4.17452601       1.80297008      -4.66289612
H        7.40827487       5.50105771      -5.29255441
H        6.17615310       4.41797616      -7.85795855
H        7.51757542       3.66862568      -6.97184184
H        7.69256670       5.28988778      -7.65104273
H        4.80886348       6.37152255      -6.64480290
H        6.36146556       7.20584741      -6.71982635
H        5.52271263       7.06597557      -5.18018605
H        5.16411930       2.94882740      -2.52898434
H        5.62992914       6.88352047      -1.88474017
H        7.55047578       7.57496979      -0.51480769
H        9.77502116       4.15441571      -1.89157076
H        7.86816830       3.44517957      -3.25102770
C       -0.88202110      -0.88202110      -0.88202110
C       -2.26275593      -0.70313748      -0.87548117
C       -3.06869536      -1.50959063      -1.68347182
C       -2.50486194      -2.50344979      -2.50162849
C       -1.10883980      -2.66794648      -2.48900732
C       -0.30135118      -1.85922877      -1.68412617
C       -3.41133330      -3.37602623      -3.35485287
H       -4.43754736      -2.99928865      -3.23963827
C       -3.37848429      -4.82582313      -2.89064819
C       -4.33306115      -5.60954618      -3.75320306
O       -5.17209086      -6.34354528      -3.23375038
C       -4.09665843      -5.52125939      -5.26247089
H       -3.11582723      -5.99251866      -5.41669803
C       -5.12794452      -6.31055633      -6.12325039
C       -5.04909510      -7.82345337      -5.88274656
C       -6.57433082      -5.82428520      -5.99247018
C       -4.00629751      -4.01216733      -5.63302889
H       -4.99819822      -3.56962574      -5.46949628
N       -3.06868163      -3.26658854      -4.77586731
C       -3.62371478      -3.73858419      -7.08517624
C       -4.26305701      -2.69479477      -7.77731586
C       -3.92916033      -2.39962301      -9.10182707
C       -2.94433909      -3.14182594      -9.74614060
Br      -2.49380153      -2.74937703     -11.53939427
C       -2.28283083      -4.16669581      -9.07516836
C       -2.61322213      -4.45623187      -7.74806859
H       -2.72183665       0.05887725      -0.25084603
H       -4.14553781      -1.35269225      -1.66841694
H       -0.63403884      -3.42424677      -3.10887186
H        0.77617441      -1.99896110      -1.69330756
H       -3.69367054      -4.90503088      -1.84377419
H       -2.38447366      -5.27994854      -2.97597001
H       -4.85168790      -6.17384047      -7.17635862
H       -5.43676117      -8.11283577      -4.90249086
H       -4.01642398      -8.17873055      -5.96288840
H       -5.64020772      -8.35851539      -6.63477411
H       -6.94919585      -5.90700477      -4.96898831
H       -7.23581257      -6.41842850      -6.63289826
H       -6.67655861      -4.78244156      -6.30987407
H       -2.11545249      -3.57989620      -4.94658235
H       -5.02336769      -2.09382915      -7.28099294
H       -4.43823778      -1.58763330      -9.61438218
H       -1.50668861      -4.74176375      -9.57255528
H       -2.06810140      -5.25038004      -7.24589414
C       -0.88202110       0.88202110       0.88202110
C       -0.60867401       2.24295760       0.98974297
C       -1.41669667       3.04922598       1.79583515
C       -2.50145621       2.50444411       2.50403991
C       -2.75596004       1.12728631       2.38254725
C       -1.95073894       0.32053054       1.57343664
C       -3.34969152       3.40581388       3.38670700
H       -2.99073929       4.43575552       3.24997947
C       -3.20045697       3.03782843       4.85667022
C       -4.03168264       4.00236122       5.66176653
O       -3.53859346       4.58420899       6.62658406
C       -5.50973244       4.09424253       5.27641374
H       -5.91785840       3.10017940       5.50700612
C       -6.32754648       5.13150543       6.10269933
C       -6.41462645       4.75382308       7.58684551
C       -5.86116909       6.58206121       5.94785590
C       -5.57721062       4.33431048       3.73997263
H       -5.16406240       5.33237167       3.54088618
N       -4.75606777       3.38085734       2.97421237
C       -6.98710805       4.30456365       3.15580352
C       -7.33699655       5.23600287       2.16216821
C       -8.61122416       5.23103214       1.58835411
C       -9.54772595       4.28693344       1.99764625
Br     -11.27409864       4.28047367       1.22800053
C       -9.21814287       3.34154924       2.96500290
C       -7.94086373       3.34355620       3.53310266
H        0.22494211       2.68703159       0.45171594
H       -1.19039008       4.11152136       1.86473556
H       -3.58644544       0.66803359       2.91267842
H       -2.16802037      -0.74074176       1.48881563
H       -2.15358861       3.11700359       5.17188340
H       -3.54083065       2.01997689       5.07958467
H       -7.36229098       5.10077186       5.73882415
H       -5.46242955       4.88127007       8.10838817
H       -6.73647437       3.71414562       7.70742295
H       -7.14967925       5.38685119       8.09696677
H       -4.82760509       6.72296755       6.27461629
H       -6.48871625       7.25054398       6.54787910
H       -5.93965259       6.91909518       4.91012648
H       -5.14354424       2.44317303       3.05521377
H       -6.60940167       5.96977368       1.81901443
H       -8.85648133       5.96169495       0.82207698
H       -9.94417388       2.59704694       3.27978681
H       -7.70804155       2.58319568       4.27313834
C        0.88202110      -0.88202110       0.88202110
C        1.95915485      -0.32011441       1.56210531
C        2.76472204      -1.12742413       2.36961163
C        2.50517277      -2.50219707       2.50257039
C        1.41431168      -3.04779628       1.80368565
C        0.60548758      -2.24047219       0.99874634
C        3.41188785      -3.35586729       3.37445726
H        4.13345384      -2.68337069       3.85964975
C        4.18607993      -4.36795445       2.54092123
C        5.08963915      -5.13718456       3.46898667
O        6.28295169      -5.26580900       3.20062582
C        4.40400221      -5.82468404       4.65170246
H        3.75221879      -6.58082671       4.19199842
C        5.37492861      -6.57504970       5.61177293
C        6.07321477      -7.75613263       4.92594763
C        6.40305645      -5.67916401       6.30886574
C        3.52712539      -4.75649621       5.36787213
H        4.20409912      -4.01687874       5.81634239
N        2.65365868      -4.01668045       4.44079835
C        2.65100676      -5.30583569       6.49063277
C        2.50359073      -4.55878613       7.67279078
C        1.69619130      -5.01713543       8.71728367
C        1.02002485      -6.22606032       8.58622046
Br      -0.06854305      -6.85218753       9.99892835
C        1.13392623      -6.97351762       7.41725116
C        1.93657270      -6.51029761       6.37065228
H        2.17980870       0.74066663       1.47466336
H        3.59976767      -0.67005882       2.89682051
H        1.17927826      -4.10625914       1.88162006
H       -0.23625529      -2.68096260       0.47138693
H        4.79661565      -3.86135286       1.78450709
H        3.53581219      -5.08207305       2.02250698
H        4.76882487      -7.02478018       6.40828195
H        6.82105084      -7.43472322       4.19631374
H        5.34679441      -8.39648818       4.41476035
H        6.59098274      -8.37399339       5.66852109
H        7.05828697      -5.16854485       5.59835711
H        7.03992380      -6.27456584       6.97264968
H        5.91739499      -4.92116279       6.93031647
H        1.94775895      -4.63982647       4.05434562
H        3.01247206      -3.60253236       7.78318536
H        1.59899787      -4.42066057       9.62059482
H        0.59959690      -7.91324434       7.30816640
H        1.99231045      -7.10725243       5.46481269
