193
Properties=species:S:1:pos:R:3 pbc="F F F"
C        0.00000000       0.00000000       0.00000000
C        0.86702265       0.86702265      -0.86702265
C        0.68720436       2.21513645      -1.07545972
C        1.74262754       2.62738491      -1.92383687
C        2.49824239       1.50164138      -2.19428555
O        1.95063039       0.41844366      -1.55811257
C        3.69894721       1.33679728      -2.99196625
O        4.33709208       2.30239145      -3.39869949
N        3.99244412       0.01082709      -3.26605793
C        5.06794107      -0.48927859      -4.02457905
C        6.15660895       0.28512873      -4.42295081
C        7.18943648      -0.27006470      -5.19087789
C        7.15509278      -1.61343055      -5.58316677
C        6.06298252      -2.38884951      -5.17026662
C        5.03581341      -1.83750621      -4.39150053
C        8.20783176      -2.22051216      -6.40803942
N        8.21053542      -3.45536029      -6.88123345
C        9.36839046      -3.58934275      -7.60463304
C        9.86303018      -4.68526506      -8.31945769
C       11.09510710      -4.56121138      -8.98406505
C       11.83218878      -3.37163973      -8.94353734
N       13.08080897      -3.20533904      -9.57961518
C       13.79384473      -4.13517463     -10.31684123
O       13.41972568      -5.27081584     -10.58755905
C       15.09069011      -3.64446330     -10.74855648
C       16.13468495      -4.29619093     -11.37841011
C       17.16811539      -3.34468561     -11.54921560
C       16.69116133      -2.16494910     -11.02602850
O       15.43487317      -2.33418894     -10.52956696
C       11.33842163      -2.26654186      -8.22757152
C       10.10843833      -2.41809301      -7.57627506
N        9.35495865      -1.56880845      -6.80929460
H        9.60097808      -0.61956204      -6.57868700
H       -0.10004452       2.83059547      -0.66204467
H        1.94042631       3.62055464      -2.30514882
H        3.30393636      -0.65911260      -2.93955036
H        6.24527940       1.33052238      -4.14286625
H        8.00652361       0.38590043      -5.47273278
H        6.00363058      -3.43698235      -5.46239838
H        4.20507031      -2.47635958      -4.10322900
H        9.30188677      -5.61251652      -8.35632574
H       11.44777130      -5.43291410      -9.52668726
H       13.54020752      -2.30805932      -9.46786642
H       16.13730199      -5.34022504     -11.66398745
H       18.13778473      -3.50420303     -11.99985332
H       11.88238554      -1.32999366      -8.17286688
C       17.41444439      -0.92004296     -11.00013763
C       18.02019396       0.12256592     -10.97845402
Br      18.99963976       1.80837631     -10.94339345
C       -0.86702265      -0.86702265      -0.86702265
C       -0.99235961      -2.23247940      -0.75296151
C       -1.92795630      -2.62652518      -1.73936783
C       -2.30923551      -1.47765138      -2.40728243
O       -1.64525472      -0.40025713      -1.88167477
C       -3.24829949      -1.28330065      -3.49611060
O       -4.01407689      -2.17396246      -3.85014366
N       -3.14079622      -0.03696916      -4.09156378
C       -3.88512120       0.46017379      -5.17829414
C       -5.03177782      -0.15806681      -5.67484386
C       -5.72002792       0.38049807      -6.77071982
C       -5.27405852       1.54891980      -7.39969028
C       -4.12676008       2.17107016      -6.88870971
C       -3.44505483       1.63998342      -5.78473633
C       -5.95694562       2.12636909      -8.56478249
N       -5.55721437       3.17903810      -9.25823232
C       -6.47807262       3.35423010     -10.25983822
C       -6.53154425       4.31212833     -11.27780689
C       -7.59888648       4.27212524     -12.19119952
C       -8.60290285       3.30054947     -12.10173299
N       -9.70212977       3.23090779     -12.98386312
C       -9.99969099       4.06898552     -14.04480586
O       -9.30764846       5.00369908     -14.43251951
C      -11.26614942       3.75248471     -14.68111859
C      -11.96816484       4.41927247     -15.66801177
C      -13.15175248       3.67913434     -15.90002723
C      -13.09808784       2.59738695     -15.05153985
O      -11.96324057       2.63339597     -14.30040660
C       -8.55277775       2.33441225     -11.08108580
C       -7.47791296       2.39756489     -10.18627230
N       -7.12776724       1.63527354      -9.10295111
H       -7.64386352       0.84186390      -8.75810342
H       -0.48181485      -2.86820935      -0.04257142
H       -2.28828305      -3.62407452      -1.95377220
H       -2.38532238       0.54344547      -3.74249721
H       -5.43255649      -1.06136461      -5.22474693
H       -6.60271240      -0.15007420      -7.11237024
H       -3.75070253       3.07975220      -7.35809627
H       -2.55497377       2.15323941      -5.43020538
H       -5.76058666       5.07078695     -11.35589628
H       -7.60790426       5.03246496     -12.96610514
H      -10.38397050       2.49924983     -12.81529395
H      -11.65316441       5.33796627     -16.14586627
H      -13.94181505       3.90948957     -16.60110954
H       -9.31330442       1.56800246     -10.97995681
C      -14.09996281       1.56697508     -14.96155133
C      -14.93903310       0.70400515     -14.88618594
Br     -16.29573879      -0.69134425     -14.76432649
C       -0.86702265       0.86702265       0.86702265
C       -2.11032831       0.52234755       1.34512466
C       -2.54446229       1.61219531       2.13719170
C       -1.54414887       2.56510408       2.08491637
O       -0.52192183       2.11339526       1.29186953
C       -1.44441025       3.86821587       2.71508461
O       -2.22715455       4.21874901       3.59227946
N       -0.42941981       4.65086500       2.18904434
C       -0.07990489       5.96323205       2.56010460
C       -0.56467339       6.59631568       3.70369941
C       -0.18907862       7.91164097       4.00953007
C        0.67743262       8.62736057       3.17490104
C        1.16934588       7.98118751       2.03255800
C        0.80412747       6.66125530       1.73267991
C        1.07181003      10.01467031       3.45249874
N        1.82160611      10.78033132       2.67768338
C        1.92111118      11.99241720       3.31237472
C        2.58964065      13.15931986       2.92754360
C        2.53533851      14.28168184       3.77161744
C        1.83183667      14.25420528       4.98171777
N        1.76335790      15.34895756       5.86948544
C        2.35535208      16.59339730       5.73746611
O        3.01137938      16.97368174       4.77416653
C        2.14595074      17.44775917       6.89297486
C        2.67282148      18.68814631       7.20157930
C        2.14483982      19.05539981       8.46208538
C        1.31691990      18.02505965       8.84410099
O        1.31419102      17.03926783       7.90517438
C        1.15680333      13.08397280       5.37228183
C        1.22702149      11.98192136       4.51172051
N        0.70218235      10.71810877       4.57951838
H        0.13524820      10.36277428       5.33257696
H       -2.63843852      -0.40229571       1.15645282
H       -3.47359442       1.70926683       2.68326852
H        0.05965551       4.24684590       1.39718373
H       -1.23252029       6.09112807       4.39501967
H       -0.60411260       8.34975808       4.91128615
H        1.84238495       8.51183526       1.35959629
H        1.20445531       6.20569832       0.83069672
H        3.13949441      13.19180007       1.99339033
H        3.06761360      15.16824505       3.44091300
H        1.24400159      15.21390559       6.73011061
H        3.36522812      19.24385196       6.58244057
H        2.34522247      19.96079062       9.01786688
H        0.60323366      13.02553478       6.30295765
C        0.55728518      17.98504032      10.06678391
C       -0.07890891      17.95152412      11.09078086
Br      -1.10758093      17.89733127      12.74649733
C        0.86702265      -0.86702265       0.86702265
C        2.06346230      -0.48522058       1.42911765
C        2.51478559      -1.59267954       2.18638418
C        1.57176528      -2.59162607       2.03077797
O        0.56873316      -2.15077025       1.20768321
C        1.51065033      -3.93046653       2.58659388
O        2.26503673      -4.28734697       3.48579931
N        0.56815845      -4.73463978       1.96653093
C        0.27182608      -6.08150072       2.24991474
C        0.73069975      -6.74997387       3.38401486
C        0.41188346      -8.09758377       3.60078244
C       -0.37027933      -8.81059167       2.68451666
C       -0.83705361      -8.12950214       1.55195110
C       -0.52914169      -6.77815656       1.34079287
C       -0.70245816     -10.22941744       2.86839974
N       -1.36860217     -10.98946182       2.01554893
C       -1.43466446     -12.23776585       2.58057935
C       -2.01806285     -13.41493136       2.10035430
C       -1.94641777     -14.57721599       2.88716254
C       -1.30875317     -14.57932552       4.13351403
N       -1.22672377     -15.71572203       4.96608684
C       -1.74261761     -16.98000216       4.73812678
O       -2.32648644     -17.34067589       3.72227945
C       -1.54692551     -17.88397173       5.85773707
C       -2.02080857     -19.16480140       6.07291131
C       -1.53931608     -19.57231787       7.33964358
C       -0.78940790     -18.52296335       7.81868529
O       -0.79187115     -17.48877082       6.93335152
C       -0.71934562     -13.39881590       4.61998101
C       -0.80490841     -12.25670900       3.81481979
N       -0.35372392     -10.97308124       3.97608749
H        0.15349370     -10.63045293       4.77615641
H        2.54956024       0.47429786       1.31733324
H        3.41843903      -1.67126986       2.77642088
H        0.09931116      -4.31392587       1.17113709
H        1.33358436      -6.24935702       4.13572666
H        0.80308661      -8.56208857       4.49998164
H       -1.44467826      -8.65677296       0.81695190
H       -0.90661614      -6.29549058       0.44306530
H       -2.51646116     -13.42488977       1.13726738
H       -2.41197015     -15.47074876       2.48276584
H       -0.76052225     -15.60105567       5.85948119
H       -2.64915855     -19.72098312       5.38923983
H       -1.71857400     -20.51569887       7.83631016
H       -0.21847337     -13.36259210       5.58114005
C       -0.09709828     -18.51035613       9.08128121
C        0.48271103     -18.49979758      10.13870529
Br       1.42021365     -18.48272529      11.84847059
