177
Properties=species:S:1:pos:R:3 pbc="F F F"
C        0.00000000       0.00000000       0.00000000
C        0.88147749       0.88147749      -0.88147749
C        0.29731794       1.68921363      -1.85536814
C        1.10554744       2.49669468      -2.65910783
C        2.49732295       2.48597812      -2.49746434
C        3.07477803       1.68045546      -1.50991367
C        2.26432765       0.87659538      -0.70218123
C        3.32738604       3.35228317      -3.37758404
N        2.83111745       4.44883692      -3.85288731
C        3.77470387       5.24284323      -4.65096164
H        4.54300831       5.61368648      -3.96253171
N        4.39276536       4.45711698      -5.70624161
C        4.95013642       3.18305943      -5.22860420
H        6.03314231       3.27231310      -5.37429481
C        4.73288139       2.92084909      -3.72938968
C        4.44955520       2.00354279      -6.06587074
C        3.07060617       1.78032978      -6.24899194
C        2.61465002       0.69827773      -7.00104549
Br       0.75550982       0.42608780      -7.21395535
C        3.51583129      -0.18218006      -7.59087788
C        4.88543142       0.01746509      -7.41765507
C        5.34197476       1.09617843      -6.65607996
O        6.68508632       1.26503133      -6.47025608
C        3.07464006       6.44580702      -5.27331348
C        1.76808063       6.29609758      -5.78565159
C        1.10484136       7.35944119      -6.40097774
C        1.74148181       8.59003938      -6.51807080
Cl       0.92821083       9.90223592      -7.27719948
C        3.03295031       8.76472024      -6.03065239
C        3.69953516       7.69780683      -5.41664147
Cl       5.31009655       7.99983048      -4.86226162
H       -0.78102353       1.70122587      -1.99568992
H        0.64388909       3.12941004      -3.41412583
H        4.14773764       1.67811537      -1.33874319
H        2.71955060       0.25611274       0.06565808
H        3.70312054       4.28698755      -6.43170893
H        5.42331895       3.52705015      -3.12906816
H        4.91338580       1.86855367      -3.48889918
H        2.34383224       2.45692396      -5.80583062
H        3.16391166      -1.02448365      -8.18037730
H        5.58015644      -0.68100967      -7.87584844
H        7.16559045       0.64203772      -7.04093870
H        1.26011173       5.33624245      -5.70211546
H        0.09772414       7.21780251      -6.78486420
H        3.52454717       9.72864331      -6.13294685
C       -0.88147749      -0.88147749      -0.88147749
C       -2.02613674      -1.46935451      -0.34640847
C       -2.83245009      -2.27352204      -1.15537781
C       -2.48670058      -2.49983613      -2.49422871
C       -1.34183802      -1.89684749      -3.02646165
C       -0.53831465      -1.08756837      -2.21722124
C       -3.36434146      -3.36933257      -3.32357922
N       -4.62727436      -3.45183831      -3.05372901
C       -5.39099548      -4.29007328      -3.98743998
H       -5.39230473      -3.77289935      -4.95402242
N       -4.80804423      -5.61351743      -4.13456228
C       -3.36486297      -5.58256677      -4.41437030
H       -3.26085832      -5.99329514      -5.42559677
C       -2.75906909      -4.17010588      -4.45394519
C       -2.58768839      -6.48159155      -3.44968878
C       -2.71672838      -6.32800638      -2.05519313
C       -1.99875828      -7.13856285      -1.17665211
Br      -2.19057325      -6.89353193       0.68855220
C       -1.14165550      -8.12098793      -1.66188569
C       -0.99510452      -8.28629394      -3.03915313
C       -1.70724202      -7.46764933      -3.91934180
O       -1.53390980      -7.62041961      -5.26604432
C       -6.83640164      -4.43338089      -3.52397802
C       -7.10825463      -4.59328837      -2.14828679
C       -8.41283764      -4.76923579      -1.68318687
C       -9.46726623      -4.79304439      -2.58928137
Cl     -11.07601672      -5.01137996      -2.02024954
C       -9.22877635      -4.64723772      -3.95230888
C       -7.92049219      -4.47417894      -4.41931233
Cl      -7.71662585      -4.32492762      -6.13063517
H       -2.30158117      -1.30740065       0.69308956
H       -3.72781847      -2.72554079      -0.73406571
H       -1.06827842      -2.02633013      -4.06998765
H        0.34767199      -0.61919665      -2.63848060
H       -4.98884372      -6.14463045      -3.28834285
H       -3.02167883      -3.66531049      -5.39244794
H       -1.66740683      -4.21366694      -4.38976489
H       -3.38529058      -5.57329202      -1.64800423
H       -0.58323441      -8.75659534      -0.97997556
H       -0.31676640      -9.05106721      -3.40716161
H       -1.00183349      -8.41719294      -5.42954045
H       -6.29030680      -4.57896487      -1.42919797
H       -8.59474871      -4.88763397      -0.61800818
H      -10.05904903      -4.67391206      -4.65317624
C       -0.88147749       0.88147749       0.88147749
C       -1.59633023       1.93354680       0.31202269
C       -2.40406782       2.73725688       1.12002523
C       -2.48600875       2.49678342       2.49797325
C       -1.77373263       1.43161265       3.05980189
C       -0.96969635       0.62426623       2.24914168
C       -3.34935853       3.37890642       3.32898831
N       -4.38552388       3.94643640       2.80088140
C       -5.18827160       4.73603461       3.74420253
H       -5.64288064       4.02872550       4.44762035
N       -4.38258996       5.70562922       4.46790477
C       -3.17332203       5.12166989       5.06680812
H       -3.31898639       5.21094834       6.14981550
C       -2.98378966       3.62412382       4.77520668
C       -1.92043031       5.91366001       4.68487840
C       -1.60491054       6.16078175       3.33423560
C       -0.45664889       6.87117017       2.98615418
Br      -0.06183268       7.17220767       1.16151262
C        0.40012873       7.35520304       3.96945481
C        0.10921730       7.11706133       5.31270755
C       -1.03629089       6.39695031       5.66099195
O       -1.29563907       6.14590212       6.97883254
C       -6.30994236       5.46802419       3.01579400
C       -6.05339276       6.04355520       1.75288183
C       -7.03852486       6.75808555       1.06864988
C       -8.29649337       6.91257210       1.64052653
Cl      -9.51249705       7.79382893       0.80132024
C       -8.57561445       6.36422742       2.88848108
C       -7.58705096       5.65060445       3.57632806
Cl      -8.01600813       5.02511192       5.13106860
H       -1.53568605       2.13511682      -0.75491060
H       -2.96422548       3.55377101       0.66942847
H       -1.84543845       1.20018355       4.11897419
H       -0.42206912      -0.20392777       2.69186391
H       -4.13063388       6.45743803       3.83374511
H       -3.66330025       3.02314468       5.39299233
H       -1.95950879       3.31112553       5.00020433
H       -2.26068162       5.80082636       2.54507884
H        1.29402203       7.91208477       3.70174257
H        0.78956712       7.49249837       6.07206397
H       -0.67130090       6.65009185       7.52717412
H       -5.07106456       5.93147064       1.29593444
H       -6.81524551       7.18914585       0.09599950
H       -9.55995354       6.49617667       3.33000712
C        0.88147749      -0.88147749       0.88147749
C        1.70145141      -0.29610039       1.84434792
C        2.50531357      -1.10468993       2.65134644
C        2.49857925      -2.49606924       2.48611692
C        1.66414332      -3.07640096       1.52460289
C        0.85573277      -2.26640331       0.72096818
C        3.37458813      -3.32516688       3.35749825
N        3.68257809      -2.90735388       4.54290970
C        4.49695472      -3.84891363       5.32264039
H        3.86347763      -4.71713966       5.53860921
N        5.68562769      -4.27053867       4.59995758
C        5.39947455      -4.72962139       3.23270411
H        5.65315152      -5.79626851       3.23033020
C        3.91862249      -4.63361116       2.83088650
C        6.28900908      -4.02318663       2.20677302
C        6.34141031      -2.61681625       2.14170132
C        7.14194360      -1.97355838       1.19847126
Br       7.17615283      -0.08393399       1.13546615
C        7.91049233      -2.71067709       0.30335969
C        7.86917949      -4.10425056       0.34712153
C        7.05962091      -4.74866139       1.28595086
O        7.00597953      -6.11390930       1.30048490
C        4.91765132      -3.22667896       6.64943028
C        5.29636742      -1.86754554       6.68591683
C        5.72787904      -1.26716835       7.87021291
C        5.79216961      -2.01984679       9.03757559
Cl       6.32503473      -1.28411286      10.49849863
C        5.43399564      -3.36432996       9.02999735
C        5.00450188      -3.96749680       7.84198478
Cl       4.60243406      -5.64810949       7.92164509
H        1.72122127       0.78301291       1.97768390
H        3.13940565      -0.64289461       3.40512470
H        1.61232018      -4.15428372       1.39799230
H        0.20705170      -2.72443177      -0.02147821
H        6.34458336      -3.49840672       4.57882694
H        3.34062477      -5.44186674       3.29694575
H        3.80402920      -4.72082194       1.74598751
H        5.75705988      -2.01549592       2.83403102
H        8.53801464      -2.21252191      -0.43073123
H        8.46704942      -4.66999997      -0.36205417
H        7.68427689      -6.46494570       0.69934428
H        5.25268668      -1.26842484       5.77735812
H        6.01146974      -0.21774431       7.87117681
H        5.49404126      -3.94585517       9.94624090
