177
Properties=species:S:1:pos:R:3 pbc="F F F"
C        0.00000000       0.00000000       0.00000000
C        0.88203848       0.88203848      -0.88203848
C        1.00844874       2.23798881      -0.59613959
C        1.81345836       3.04276624      -1.40588661
C        2.50520574       2.50290644      -2.50800464
C        2.35639538       1.13254884      -2.77663885
C        1.55164867       0.32483702      -1.96775278
C        3.37288599       3.41466567      -3.37259430
H        2.69308431       4.23135697      -3.65663762
N        3.76952028       2.80935797      -4.64182184
C        5.00368514       2.71151716      -4.98507906
C        6.13269420       3.23507903      -4.13799674
C        5.70574779       3.30185243      -2.67872631
H        6.46773690       3.92557118      -2.18890355
N        4.44183710       4.04733188      -2.58913108
C        5.70204765       2.01556904      -1.86381101
C        5.96664297       0.75385273      -2.42176101
C        5.99855166      -0.39102260      -1.61857411
Cl       6.30208249      -1.92372597      -2.34202869
C        5.79138254      -0.30564335      -0.24490867
C        5.52537381       0.93354077       0.32970343
C        5.46398589       2.06721230      -0.47751469
O        5.12617105       3.24440382       0.13570345
C        5.35109421       2.06307988      -6.28454599
C        6.52244431       2.40001647      -6.97532993
C        6.83808824       1.75820827      -8.17473815
C        5.98756627       0.77977731      -8.68804003
C        4.81686911       0.45262474      -8.00393547
Br       3.66839313      -0.87731685      -8.70054705
C        4.49007554       1.09203944      -6.80924858
H        0.48950909       2.67839356       0.25041885
H        1.90649649       4.10099551      -1.17185511
H        2.87069013       0.67951465      -3.62018185
H        1.45564595      -0.73265623      -2.19643086
H        7.03636304       2.62767276      -4.25706585
H        6.36572805       4.24467688      -4.50284308
H        4.59030537       4.96081709      -3.01694698
H        6.14062559       0.63361568      -3.48587523
H        5.82328733      -1.19411948       0.37728522
H        5.34262518       1.01696583       1.39659086
H        4.68168327       3.78124166      -0.55432625
H        7.19676285       3.16768981      -6.60640747
H        7.74684195       2.02141294      -8.71110391
H        6.24240262       0.28082111      -9.61986988
H        3.57577062       0.83004519      -6.28223146
C       -0.88203848      -0.88203848      -0.88203848
C       -1.99523153      -0.33475285      -1.51259276
C       -2.80158751      -1.14414323      -2.31638046
C       -2.50402745      -2.50831675      -2.50377261
C       -1.37741994      -3.03595752      -1.85220561
C       -0.56860488      -2.22814910      -1.04748448
C       -3.41092937      -3.36251707      -3.38669952
H       -4.41427495      -3.20071519      -2.96608876
N       -3.17995357      -4.79799088      -3.24275564
C       -2.90511834      -5.54096384      -4.25419918
C       -2.83141920      -5.01246427      -5.66188650
C       -2.51560139      -3.52375723      -5.64696791
H       -2.73959731      -3.17644231      -6.66617201
N       -3.47227739      -2.84595563      -4.76006703
C       -1.07423132      -3.08966318      -5.41753320
C       -0.04200178      -3.99112628      -5.10912864
C        1.27503395      -3.54525833      -4.95587880
Cl       2.50961275      -4.67613941      -4.55385855
C        1.59885201      -2.20249177      -5.12700810
C        0.59233044      -1.29080190      -5.43073969
C       -0.72293204      -1.73336210      -5.55241874
O       -1.67752677      -0.77780040      -5.77954424
C       -2.65662088      -6.99827915      -4.04382005
C       -2.90818441      -7.93270335      -5.05690295
C       -2.64050619      -9.28662649      -4.84390196
C       -2.12183603      -9.71202488      -3.62152270
C       -1.88124326      -8.78154699      -2.61063906
Br      -1.17403570      -9.36127195      -0.95631568
C       -2.15098561      -7.42884501      -2.81153294
H       -2.24427974       0.71523622      -1.38844028
H       -3.66813144      -0.70521947      -2.80599620
H       -1.11697399      -4.08471989      -1.96869275
H        0.29831126      -2.66103276      -0.55669908
H       -2.09759010      -5.56528664      -6.25822491
H       -3.81671174      -5.17804645      -6.11848983
H       -4.41099358      -3.06444449      -5.09263137
H       -0.24020033      -5.04882600      -4.97109016
H        2.62229243      -1.85984598      -5.01432909
H        0.82292600      -0.23658854      -5.54933762
H       -2.50204747      -1.13168522      -5.38351849
H       -3.32456016      -7.63210679      -6.01419318
H       -2.83746575     -10.01153786      -5.63035520
H       -1.91124941     -10.76713961      -3.46470460
H       -1.95954848      -6.71034902      -2.01814977
C       -0.88203848       0.88203848       0.88203848
C       -0.29499426       1.79880569       1.74877719
C       -1.10378194       2.60218404       2.55614521
C       -2.50812553       2.50308275       2.50490852
C       -3.07424290       1.56656743       1.62477274
C       -2.26720266       0.76154754       0.81548827
C       -3.35936951       3.39537896       3.40539750
H       -2.95723352       3.21136282       4.41248256
N       -4.75696881       2.97728554       3.48644574
C       -5.71818166       3.78065639       3.20144331
C       -5.49463556       5.21356851       2.79756590
C       -4.10347392       5.37967013       2.20318248
H       -3.93063853       6.46567564       2.18589747
N       -3.11866602       4.81959293       3.14004111
C       -3.87341477       4.94632690       0.76168602
C       -4.85284391       4.29928565      -0.00987286
C       -4.60607087       3.96587094      -1.34583864
Cl      -5.82197466       3.15134368      -2.25293313
C       -3.39376043       4.28656643      -1.94967900
C       -2.40771181       4.92572142      -1.20422208
C       -2.64539506       5.22879698       0.13452083
O       -1.61037848       5.79084779       0.83364515
C       -7.12675105       3.29133151       3.28063752
C       -8.18773503       4.16815896       3.54189672
C       -9.49892831       3.68937540       3.58273095
C       -9.75547474       2.33649845       3.36341041
C       -8.69695159       1.46330281       3.11317492
Br      -9.04888249      -0.36931282       2.81205367
C       -7.38423336       1.93058344       3.07654676
H        0.78524156       1.89842097       1.80430439
H       -0.63409369       3.31673717       3.22851625
H       -4.15364746       1.45750808       1.55923108
H       -2.73088147       0.04677370       0.14176540
H       -6.26543013       5.55662300       2.09904851
H       -5.58374154       5.82103324       3.70847324
H       -3.24223809       5.28937623       4.03645512
H       -5.81640744       4.03240789       0.41130116
H       -3.20695523       4.03305071      -2.98812331
H       -1.44898837       5.16689025      -1.65287847
H       -1.74086035       5.51165449       1.76473635
H       -8.01664198       5.22434195       3.72987619
H      -10.32183134       4.37045915       3.78706831
H      -10.77940877       1.97186479       3.39182006
H       -6.56527884       1.24283469       2.87993373
C        0.88203848      -0.88203848       0.88203848
C        0.29877304      -1.69314251       1.85066158
C        1.10782339      -2.49664346       2.65764436
C        2.50823309      -2.50332502       2.50455870
C        3.07103800      -1.67195816       1.52258691
C        2.26369848      -0.86707999       0.71346000
C        3.36027333      -3.39209071       3.40778193
H        3.04558080      -3.11175539       4.42374271
N        4.78512390      -3.07192146       3.36365473
C        5.66663918      -3.96029756       3.07334462
C        5.31806196      -5.39723945       2.79046855
C        3.87942571      -5.50181957       2.30508126
H        3.63278840      -6.57111196       2.37831128
N        3.00525555      -4.80977098       3.26327353
C        3.57526209      -5.15135487       0.85481073
C        4.53765164      -4.63066809      -0.02606303
C        4.21775484      -4.37129529      -1.36294696
Cl       5.41694627      -3.71025509      -2.40681615
C        2.94595465      -4.64331591      -1.85862270
C        1.97561853      -5.15743943      -1.00384681
C        2.28872222      -5.38577568       0.33421497
O        1.27151087      -5.82275548       1.14060506
C        7.10708569      -3.57016843       3.02146596
C        8.12252656      -4.50195381       3.27331034
C        9.46258253      -4.11784577       3.19060635
C        9.79339886      -2.80505783       2.85692692
C        8.78096059      -1.87631974       2.61614898
Br       9.23318412      -0.09860107       2.15983814
C        7.44046961      -2.24858665       2.70230730
H       -0.77884878      -1.71018414       1.98614843
H        0.64090896      -3.12817577       3.41026238
H        4.14774478      -1.64613554       1.37650631
H        2.72454995      -0.23498367      -0.04011305
H        6.01122335      -5.84170690       2.06817140
H        5.43172417      -5.94660817       3.73491568
H        3.16146861      -5.22561513       4.18098570
H        5.54504714      -4.40650884       0.30856051
H        2.70190411      -4.44768842      -2.89770990
H        0.97278407      -5.35822477      -1.36800869
H        1.48773525      -5.49146915       2.03804678
H        7.89452277      -5.52782371       3.54851364
H       10.25021723      -4.84143496       3.38770661
H       10.83899440      -2.51454747       2.78955175
H        6.65777456      -1.51812955       2.51214316
