185
Properties=species:S:1:pos:R:3 pbc="F F F"
C        0.00000000       0.00000000       0.00000000
C        0.88203848       0.88203848      -0.88203848
C        1.00844874       2.23798881      -0.59613959
C        1.81345836       3.04276624      -1.40588661
C        2.50520574       2.50290644      -2.50800464
C        2.35639538       1.13254884      -2.77663885
C        1.55164867       0.32483702      -1.96775278
C        3.37288599       3.41466567      -3.37259430
H        2.69308431       4.23135697      -3.65663762
N        3.76952028       2.80935797      -4.64182184
C        5.00368514       2.71151716      -4.98507906
C        6.13269420       3.23507903      -4.13799674
C        5.70574779       3.30185243      -2.67872631
H        6.46773690       3.92557118      -2.18890355
N        4.44183710       4.04733188      -2.58913108
C        5.70204765       2.01556904      -1.86381101
C        5.96664297       0.75385273      -2.42176101
C        5.99855166      -0.39102260      -1.61857411
Cl       6.30208249      -1.92372597      -2.34202869
C        5.79138254      -0.30564335      -0.24490867
C        5.52537381       0.93354077       0.32970343
C        5.46398589       2.06721230      -0.47751469
O        5.12617105       3.24440382       0.13570345
C        5.35109421       2.06307988      -6.28454599
C        6.52244431       2.40001647      -6.97532993
C        6.83808824       1.75820827      -8.17473815
C        5.98756627       0.77977731      -8.68804003
C        4.81686911       0.45262474      -8.00393547
C        4.49007554       1.09203944      -6.80924858
H        0.48950909       2.67839356       0.25041885
H        1.90649649       4.10099551      -1.17185511
H        2.87069013       0.67951465      -3.62018185
H        1.45564595      -0.73265623      -2.19643086
H        7.03636304       2.62767276      -4.25706585
H        6.36572805       4.24467688      -4.50284308
H        4.59030537       4.96081709      -3.01694698
H        6.14062559       0.63361568      -3.48587523
H        5.82328733      -1.19411948       0.37728522
H        5.34262518       1.01696583       1.39659086
H        4.68168327       3.78124166      -0.55432625
H        7.19676285       3.16768981      -6.60640747
H        7.74684195       2.02141294      -8.71110391
H        6.24240262       0.28082111      -9.61986988
H        3.57577062       0.83004519      -6.28223146
C        3.94195115      -0.56053513      -8.53461961
C        3.20920737      -1.40905652      -8.97906757
Br       2.02442264      -2.78104385      -9.69770234
C       -0.88203848      -0.88203848      -0.88203848
C       -2.03115028      -0.35130379      -1.46012306
C       -2.83733060      -1.16077054      -2.26401005
C       -2.50388678      -2.50832039      -2.50390963
C       -1.34131077      -3.01965115      -1.90462115
C       -0.53259514      -2.21171524      -1.09992809
C       -3.41165271      -3.36331351      -3.38517975
H       -4.40559685      -3.24666036      -2.92882169
N       -3.13195941      -4.79445457      -3.29428612
C       -2.86668837      -5.49667827      -4.33691471
C       -2.85427755      -4.92285304      -5.72863937
C       -2.58429593      -3.42600509      -5.67602552
H       -2.85130096      -3.05468202      -6.67622865
N       -3.53269266      -2.80678119      -4.73882621
C       -1.15044499      -2.95346935      -5.47751335
C       -0.08154492      -3.83065951      -5.23005227
C        1.22530128      -3.34797190      -5.10343255
Cl       2.50642497      -4.45079440      -4.77601578
C        1.50185248      -1.99091661      -5.24158373
C        0.45846802      -1.10283443      -5.48484474
C       -0.84570222      -1.58313653      -5.57987412
O       -1.83612402      -0.65193717      -5.74681022
C       -2.56669747      -6.95113342      -4.18088919
C       -2.82144255      -7.86135354      -5.21499462
C       -2.50540098      -9.21198791      -5.05364575
C       -1.93512118      -9.65819954      -3.86206289
C       -1.69128422      -8.75220369      -2.82994140
C       -2.00896412      -7.40322920      -2.97917024
H       -2.30843837       0.68587239      -1.29491781
H       -3.73219427      -0.73478119      -2.71237165
H       -1.05242966      -4.05547527      -2.06248170
H        0.36249103      -2.63169471      -0.65021689
H       -2.12310494      -5.43330488      -6.36469183
H       -3.84804112      -5.10557991      -6.15962699
H       -4.47433593      -3.04471018      -5.04902333
H       -0.24246407      -4.89790114      -5.11975128
H        2.51728880      -1.61945725      -5.14971418
H        0.65247984      -0.03864342      -5.57683656
H       -2.63626907      -1.04400051      -5.33698160
H       -3.27721992      -7.54475006      -6.14889014
H       -2.70484353      -9.91816349      -5.85635178
H       -1.68713939     -10.71040457      -3.74554966
H       -1.81461935      -6.70385288      -2.16957504
C       -1.09922796      -9.21517045      -1.60163722
C       -0.60338084      -9.60290511      -0.57293247
Br       0.19836202     -10.22983927       1.09039611
C       -0.88203848       0.88203848       0.88203848
C       -2.26679008       0.76492066       0.81086640
C       -3.07101960       1.57456305       1.61652856
C       -2.50261649       2.50765734       2.50584298
C       -1.10273495       2.60848563       2.55436249
C       -0.29555134       1.79927270       1.74941443
C       -3.41404723       3.37811525       3.36798349
H       -4.09515944       3.84469768       2.64122178
N       -2.72279799       4.50142519       3.99647691
C       -2.74947636       4.68272249       5.26808251
C       -3.51254894       3.78655718       6.20666385
C       -3.69179581       2.40859533       5.58593540
H       -4.46340955       1.92006353       6.19873856
N       -4.26918414       2.56597317       4.24314275
C       -2.51998205       1.43700118       5.62444446
C       -1.24794735       1.78884331       6.10546605
C       -0.21866973       0.84331970       6.16411374
Cl       1.33424764       1.31776925       6.73686360
C       -0.43528414      -0.47350374       5.76886746
C       -1.68689168      -0.84455827       5.28687774
C       -2.70077884       0.10688628       5.20104775
O       -3.88637540      -0.30199700       4.65049301
C       -2.00575109       5.83583578       5.85713321
C       -2.41166485       6.42395190       7.06217396
C       -1.68191984       7.48314231       7.60597250
C       -0.54670995       7.95825906       6.95041459
C       -0.14973604       7.37793384       5.74575943
C       -0.87510311       6.32437305       5.19188740
H       -2.73035565       0.05014545       0.13698270
H       -4.15225447       1.47307817       1.55401447
H       -0.62647492       3.31916571       3.22474600
H        0.78472719       1.89593005       1.80821771
H       -3.02008172       3.71836284       7.18265708
H       -4.49467485       4.25187909       6.36669408
H       -5.13820168       3.09043620       4.33943156
H       -1.02867559       2.80021040       6.43123051
H        0.36266977      -1.20700641       5.82155881
H       -1.86909172      -1.86249521       4.95640364
H       -4.27580901       0.49988642       4.24155574
H       -3.29933445       6.08364617       7.58787949
H       -1.99855840       7.94008778       8.54071263
H        0.01929102       8.77999017       7.38239447
H       -0.55783476       5.87743633       4.25277619
C        1.02490523       7.86841615       5.07252470
C        2.00866729       8.27919509       4.50869062
Br       3.59932734       8.94338988       3.59701859
C        0.88203848      -0.88203848       0.88203848
C        0.39966891      -1.33778667       2.10512156
C        1.20927770      -2.14193074       2.91090276
C        2.50829574      -2.50424024       2.50358083
C        2.97182935      -2.02688536       1.26686836
C        2.16361025      -1.22222952       0.45839870
C        3.36540203      -3.38171165       3.41303229
H        3.35516614      -2.85005529       4.37585747
N        4.77454003      -3.41745479       3.02870527
C        5.38097260      -4.52544796       2.79386081
C        4.71263367      -5.86798794       2.92514836
C        3.20708602      -5.72272535       2.75651517
H        2.78820674      -6.67149754       3.12250735
N        2.72686305      -4.67840119       3.67303582
C        2.64382640      -5.58949434       1.34810695
C        3.45388967      -5.48292706       0.20543997
C        2.88501617      -5.41164411      -1.07055711
Cl       3.90925523      -5.25709465      -2.44596466
C        1.50480629      -5.46703761      -1.24119604
C        0.68229580      -5.57038475      -0.12346940
C        1.25078869      -5.61024947       1.14767471
O        0.38673093      -5.63812768       2.21001281
C        6.81630887      -4.49954569       2.38286551
C        7.66903747      -5.57849083       2.65026242
C        9.00026528      -5.54066223       2.23010715
C        9.48430087      -4.42813705       1.54294569
C        8.63645059      -3.35072371       1.28625502
C        7.30783725      -3.37650549       1.70702082
H       -0.59996249      -1.07683178       2.44061450
H        0.82114454      -2.49408700       3.86411557
H        3.96976060      -2.28123734       0.91938868
H        2.54584185      -0.86829781      -0.49471909
H        5.12175131      -6.58954490       2.20980543
H        4.93863241      -6.24140482       3.93321079
H        3.01227060      -4.93939057       4.61640826
H        4.53523577      -5.44164415       0.28323657
H        1.06590856      -5.41839972      -2.23242564
H       -0.39721359      -5.59597767      -0.23576392
H        0.86487938      -5.20415420       2.94821760
H        7.32327563      -6.45228305       3.19530144
H        9.66194288      -6.37802888       2.43938704
H       10.52061784      -4.40792678       1.21454900
H        6.65378185      -2.53243895       1.50182647
C        9.13807787      -2.20442923       0.57352853
C        9.55819071      -1.24440761      -0.02337990
Br      10.23747765       0.30786616      -0.98853036
