198
Properties=species:S:1:pos:R:3 pbc="F F F"
C        1.79194251       1.79194251      -1.79194251
C        1.91835276       3.14789284      -1.50604361
C        2.72336238       3.95267026      -2.31579063
C        3.41510976       3.41281046      -3.41790866
C        3.26629940       2.04245286      -3.68654288
C        2.46155269       1.23474105      -2.87765680
C        4.28279002       4.32456970      -4.28249833
H        3.60298833       5.14126099      -4.56654164
N        4.67942430       3.71926200      -5.55172587
C        5.91358916       3.62142119      -5.89498308
C        7.04259822       4.14498305      -5.04790076
C        6.61565182       4.21175646      -3.58863034
H        7.37764092       4.83547521      -3.09880758
N        5.35174113       4.95723591      -3.49903510
C        6.61195167       2.92547306      -2.77371503
C        6.87654699       1.66375675      -3.33166503
C        6.90845568       0.51888143      -2.52847813
Cl       7.21198652      -1.01382194      -3.25193271
C        6.70128656       0.60426067      -1.15481270
C        6.43527784       1.84344479      -0.58020059
C        6.37388991       2.97711632      -1.38741871
O        6.03607507       4.15430785      -0.77420057
C        6.26099824       2.97298390      -7.19445001
C        7.43234833       3.30992050      -7.88523396
C        7.74799226       2.66811229      -9.08464217
C        6.89747029       1.68968133      -9.59794406
C        5.72677313       1.36252876      -8.91383949
Br       4.57829715       0.03258718      -9.61045108
C        5.39997956       2.00194346      -7.71915260
H        1.39941312       3.58829758      -0.65948517
H        2.81640052       5.01089953      -2.08175913
H        3.78059416       1.58941867      -4.53008587
H        2.36554998       0.17724779      -3.10633488
H        7.94626706       3.53757678      -5.16696988
H        7.27563208       5.15458091      -5.41274710
H        5.50020940       5.87072111      -3.92685100
H        7.05052962       1.54351970      -4.39577925
H        6.73319136      -0.28421546      -0.53261881
H        6.25252920       1.92686986       0.48668684
H        5.59158729       4.69114568      -1.46423028
H        8.10666687       4.07759383      -7.51631149
H        8.65674598       2.93131697      -9.62100793
H        7.15230665       1.19072514     -10.52977391
H        4.48567464       1.73994921      -7.19213549
C       -1.79194251      -1.79194251      -1.79194251
C       -2.35237203      -1.26735271      -2.95256446
C       -3.16070507      -2.07527201      -3.75584620
C       -3.41578017      -3.41753997      -3.41250875
C       -2.84148399      -3.92017207      -2.23363908
C       -2.03193873      -3.11392498      -1.42808683
C       -4.30756404      -4.26887374      -4.31342027
H       -5.22718830      -3.67330539      -4.41029728
N       -4.74269331      -5.51693078      -3.69078807
C       -4.52911285      -6.65638220      -4.24449837
C       -3.85181298      -6.80268780      -5.58098126
C       -2.96568105      -5.59594857      -5.85440899
H       -2.73009918      -5.65474456      -6.92707997
N       -3.76176547      -4.37344953      -5.67279713
C       -1.60203623      -5.52894110      -5.18016243
C       -1.16818513      -6.47100493      -4.23277872
C        0.11402825      -6.39052551      -3.67931798
Cl       0.60179753      -7.54915923      -2.50273559
C        0.99875624      -5.38948669      -4.06962948
C        0.59009344      -4.44383588      -5.00518078
C       -0.69806152      -4.50886667      -5.53149675
O       -1.06505136      -3.50803795      -6.39149418
C       -4.97673852      -7.90073456      -3.55095907
C       -5.29783297      -9.05912051      -4.27054931
C       -5.68674420     -10.21823504      -3.59576749
C       -5.75646214     -10.22544674      -2.20318679
C       -5.44588605      -9.06831464      -1.48894070
Br      -5.53734664      -9.08301740       0.39902863
C       -5.06266111      -7.90466244      -2.15375208
H       -2.16775076      -0.23693434      -3.24251076
H       -3.59195970      -1.65523679      -4.66186270
H       -3.01787591      -4.94954628      -1.93267650
H       -1.59818687      -3.52834975      -0.52259602
H       -3.27833454      -7.73412086      -5.63835832
H       -4.64562089      -6.85913387      -6.33820533
H       -4.57192658      -4.43736441      -6.28849052
H       -1.81674837      -7.27412135      -3.89895885
H        1.99534639      -5.33291834      -3.64402276
H        1.25981638      -3.64476221      -5.30776639
H       -2.03661756      -3.41930225      -6.29104344
H       -5.26554086      -9.07880182      -5.35622951
H       -5.93725761     -11.11660308      -4.15521019
H       -6.05525202     -11.13310415      -1.68444952
H       -4.82152985      -7.00743037      -1.58879912
C       -1.79194251       1.79194251       1.79194251
C       -2.12656854       1.37052117       3.07519950
C       -2.93546343       2.17773937       3.87862048
C       -3.41642839       3.41705040       3.41235009
C       -3.06733873       3.81604140       2.11191501
C       -2.25776597       3.01029648       1.30588809
C       -4.30141989       4.27037261       4.31806554
H       -5.10953281       3.58596955       4.61528861
N       -4.98034773       5.35586234       3.61420210
C       -4.86234426       6.57921208       3.98843709
C       -4.05341803       6.99348335       5.18858067
C       -2.98003311       5.95496357       5.48104193
H       -2.62519032       6.19205874       6.49467465
N       -3.61303057       4.63071829       5.56426327
C       -1.71361563       5.96191938       4.63560475
C       -1.53572567       6.80787197       3.52837113
C       -0.33260208       6.80853668       2.81467649
Cl      -0.16023366       7.84174217       1.44812145
C        0.72490160       5.98833272       3.19692880
C        0.57080977       5.14028768       4.28944531
C       -0.63931605       5.11990933       4.97919957
O       -0.75399881       4.21217182       5.99841286
C       -5.56173144       7.64958527       3.21711544
C       -5.95133744       8.84918688       3.82697846
C       -6.57878391       9.84565062       3.07631219
C       -6.81918155       9.64890024       1.71701389
C       -6.43942970       8.44998917       1.11372252
Br      -6.76303087       8.18846258      -0.73015804
C       -5.81815712       7.44697130       1.85594721
H       -1.76510566       0.42146505       3.46062516
H       -3.18908236       1.83918985       4.88078698
H       -3.42192183       4.76353671       1.71464016
H       -2.00084229       3.34371399       0.30457637
H       -3.61355707       7.98702238       5.05023427
H       -4.74831568       7.05771410       6.03693031
H       -4.34241018       4.68043354       6.27493779
H       -2.32651419       7.47052267       3.19279171
H        1.65974111       5.99536851       2.64596730
H        1.37798757       4.47982557       4.59087422
H       -1.70843154       3.99167918       6.04685253
H       -5.78914238       9.02473018       4.88669963
H       -6.88223540      10.77599246       3.55084302
H       -7.30367463      10.43125227       1.13787879
H       -5.52475894       6.51582152       1.37717888
C        1.79194251      -1.79194251       1.79194251
C        1.44483343      -3.12253419       2.00492158
C        2.25165395      -3.92609920       2.81407012
C        3.41674446      -3.41232815       3.41675627
C        3.74126277      -2.06512266       3.18890971
C        2.93576133      -1.25881306       2.37937615
C        4.27176821      -4.32012434       4.29796549
H        3.55713472      -4.72307577       5.03058048
N        5.25251972      -3.59530447       5.10258798
C        6.50549450      -3.87434877       5.05015017
C        7.06259223      -4.97964564       4.19324417
C        6.12527778      -5.26265917       3.02810166
H        6.46090237      -6.22835088       2.62267046
N        4.77031075      -5.48391021       3.55379117
C        6.15691958      -4.32709426       1.82712592
C        6.92861140      -3.15392863       1.78942875
C        6.95940159      -2.35456005       0.64185361
Cl       7.89775072      -0.91088492       0.64146164
C        6.24484587      -2.71300057      -0.49748651
C        5.47162381      -3.86990296      -0.48260355
C        5.41896084      -4.64733603       0.67212808
O        4.58363493      -5.73251097       0.64843759
C        7.46478682      -3.08498121       5.87866412
C        8.67656319      -3.63775874       6.31318085
C        9.56882950      -2.86870531       7.06321191
C        9.25558873      -1.54784761       7.38165933
C        8.04430647      -1.00229163       6.95654329
Br       7.62490616       0.79000035       7.38642960
C        7.14446675      -1.76385798       6.21275090
H        0.55424629      -3.54469837       1.54825120
H        1.97172014      -4.96531170       2.97202734
H        4.62989282      -1.63076750       3.63943839
H        3.21088130      -0.22056012       2.21769123
H        8.07112470      -4.74073341       3.83895561
H        7.14146392      -5.87076762       4.83072855
H        4.82214047      -6.24162883       4.23401221
H        7.50831365      -2.83300549       2.64850943
H        6.27552210      -2.09500073      -1.38892812
H        4.89269601      -4.15548386      -1.35546765
H        4.30194702      -5.86677781       1.57823842
H        8.94106711      -4.66785305       6.09165203
H       10.50863940      -3.29905208       7.40137940
H        9.95745386      -0.95361979       7.96173204
H        6.20284409      -1.33009761       5.88481764
C       -0.00445707       0.01189536      -1.78238275
H       -0.66409135       0.67374010      -2.43557963
H        0.65740317      -0.63156657      -2.45157240
C       -0.90989263      -0.90692880      -0.91072765
C        0.90977584       0.90977584      -0.90977584
C       -0.00465871       1.77757030       0.00794375
H       -0.66225468       2.44313916      -0.64384735
H        0.64322798       2.43503045       0.67728295
C       -1.78241447       0.00034974      -0.00472694
H       -2.45427497      -0.65498947       0.64260836
H       -2.43311707       0.67328779      -0.65473579
C       -0.91132561       0.90220522       0.91563759
C       -0.01476271      -0.02253852       1.78660255
H       -0.67934791      -0.69751639       2.42135241
H        0.63392994       0.61504881       2.47327442
C        0.01484550      -1.77751727      -0.01636693
H        0.67870853      -2.42144646      -0.68295456
H       -0.62264859      -2.45592969       0.64226336
C        1.78714474       0.01002794       0.00389507
H        2.44202412       0.67113390       0.66197326
H        2.45385902      -0.65136977      -0.64189061
C        0.91606151      -0.90478549       0.90901405
