177
Properties=species:S:1:pos:R:3 pbc="F F F"
C        0.00000000       0.00000000       0.00000000
Cl       5.86393124       3.55190295      -9.91437127
C        6.19846664       2.54888199      -8.55853929
C        7.51407080       2.36581571      -8.14188354
C        7.78409713       1.55971072      -7.03389107
C        6.73345095       0.93439061      -6.36029851
O        6.99569311       0.16292369      -5.26339266
C        5.40336356       1.08701031      -6.77746244
C        5.15161240       1.92495820      -7.88190873
C        4.26473632       0.40418465      -6.03106467
H        4.62887102      -0.55251958      -5.63365000
N        3.13049016       0.13038614      -6.90788706
C        2.11330691      -0.63358690      -6.20508400
H        2.46716258      -1.66524844      -6.07828390
N        1.77615971      -0.14935450      -4.87056938
C        2.51950041       0.72201623      -4.28356698
C        3.77218055       1.29850475      -4.90222539
C        2.10834339       1.22479557      -2.93781827
C        2.49543257       2.49170079      -2.48310959
C        2.07430051       2.94838193      -1.23150391
C        1.26894512       2.14172083      -0.42827958
C        0.88193831       0.88193831      -0.88193831
C        1.29107698       0.42041571      -2.13257942
C        0.87210777      -0.67720961      -7.08951207
C        0.69076061      -1.71906018      -8.01594534
C       -0.41571094      -1.72467467      -8.86841566
C       -1.34486895      -0.69056539      -8.80413774
F       -2.39611808      -0.71943876      -9.63707711
C       -1.17969514       0.35358333      -7.89924186
Br      -2.43430042       1.76590140      -7.81528046
C       -0.07382880       0.36553823      -7.04974146
H        8.32987144       2.85244093      -8.67080912
H        8.81459527       1.43582421      -6.71420395
H        7.95484741       0.15325314      -5.10426716
H        4.12845721       2.09201233      -8.21621490
H        3.44500072      -0.42161011      -7.70254356
H        3.53226829       2.30411107      -5.27325559
H        4.54869657       1.39826023      -4.13387603
H        3.10472191       3.15042617      -3.09584663
H        2.36756897       3.93706541      -0.88642728
H        0.94368814       2.50522855       0.54348911
H        0.97680142      -0.55997161      -2.48280931
H        1.41603195      -2.52710376      -8.08269524
H       -0.55794963      -2.52606584      -9.58738415
H        0.06890821       1.18742125      -6.35091147
Cl      -6.37726502      -9.69653386      -3.25640658
C       -4.74378143      -9.17584692      -3.38625956
C       -3.94512038      -9.65639700      -4.42025267
C       -2.62165033      -9.22461783      -4.53143076
C       -2.10670569      -8.32369592      -3.59773846
O       -0.81836143      -7.88479417      -3.71885386
C       -2.88714212      -7.84524170      -2.53545249
C       -4.22696875      -8.27428886      -2.45722171
C       -2.31595161      -6.85804750      -1.52598654
H       -1.24635768      -7.06904736      -1.39459641
N       -2.96638774      -6.97752527      -0.22485035
C       -2.31861057      -6.11796170       0.75176827
H       -1.34720081      -6.55354889       1.02055166
N       -2.04706868      -4.75560693       0.30530102
C       -2.14090755      -4.44422597      -0.93995009
C       -2.52250447      -5.43253571      -2.01787050
C       -1.90110764      -3.02576047      -1.34408913
C       -2.48567035      -2.48725227      -2.49732033
C       -2.26684508      -1.14979603      -2.83754522
C       -1.46169177      -0.34648596      -2.03076780
C       -0.88193831      -0.88193831      -0.88193831
C       -1.10041086      -2.21349016      -0.53017110
C       -3.18321633      -6.10877414       2.00758025
C       -2.96846273      -7.04938371       3.03020067
C       -3.80052550      -7.07922105       4.15171650
C       -4.85246409      -6.17424849       4.25800918
F       -5.63799313      -6.22773594       5.34420880
C       -5.08628990      -5.24021958       3.25337942
Br      -6.52045869      -4.01525479       3.38883203
C       -4.26092001      -5.21025515       2.12972427
H       -4.34909624     -10.36008382      -5.14394143
H       -2.01467494      -9.59980607      -5.35014242
H       -0.41160641      -8.30530352      -4.49545779
H       -4.87266089      -7.90040595      -1.66361760
H       -2.89048520      -7.93785678       0.10240781
H       -3.57437860      -5.25538573      -2.27987061
H       -1.91604048      -5.25106529      -2.91372705
H       -3.13455165      -3.08318814      -3.13325492
H       -2.73137097      -0.73204491      -3.72764578
H       -1.29804081       0.69386158      -2.30124835
H       -0.65188826      -2.62068888       0.37293802
H       -2.15601305      -7.76867817       2.95306779
H       -3.63979409      -7.80603709       4.94246248
H       -4.44840754      -4.49243491       1.33360152
Cl      -4.68309678       4.48663964      10.16046904
C       -5.02826463       3.17967994       9.09794335
C       -6.32796687       2.68993070       9.00387248
C       -6.60964920       1.63551527       8.13253444
C       -5.58322089       1.07324071       7.37167847
O       -5.86275720       0.05582779       6.50342447
C       -4.26311398       1.53628013       7.46844219
C       -4.00630131       2.61746104       8.33471698
C       -3.15247646       0.91853770       6.62897148
H       -3.37099121      -0.14822227       6.48723250
N       -1.85252465       1.03369044       7.28254827
C       -0.83429521       0.32607854       6.52443026
H       -0.98067366      -0.75439520       6.65391958
N       -0.84070084       0.57071209       5.08596166
C       -1.83966709       1.15869813       4.52671840
C       -3.05979188       1.62771519       5.28540361
C       -1.78064849       1.43156145       3.05874730
C       -2.49677059       2.48925981       2.48421256
C       -2.40230428       2.73918050       1.11270155
C       -1.59630893       1.93301454       0.30962207
C       -0.88193831       0.88193831       0.88193831
C       -0.96401203       0.62921814       2.25084195
C        0.52171338       0.68278243       7.12334118
C        1.07379712      -0.09488316       8.15632606
C        2.28666335       0.26854164       8.74615177
C        2.95343971       1.41030679       8.31183632
F        4.11466139       1.73775491       8.89842675
C        2.42014721       2.19747656       7.29580071
Br       3.31760487       3.75515209       6.70933422
C        1.20704658       1.84088095       6.70761652
H       -7.12417466       3.12879729       9.60014954
H       -7.63062864       1.27207525       8.06191955
H       -6.81136495      -0.15177519       6.55277796
H       -2.99891558       3.02425191       8.41351696
H       -1.90299225       0.61466765       8.20827427
H       -2.97563019       2.71465629       5.41934846
H       -3.96029518       1.42927607       4.69126157
H       -3.11581959       3.14685735       3.08831777
H       -2.95099618       3.56816328       0.67190220
H       -1.52648733       2.13536018      -0.75641994
H       -0.39595010      -0.18708659       2.69077562
H        0.55636184      -0.98345629       8.51144156
H        2.71506300      -0.32783503       9.54626673
H        0.77733970       2.46111429       5.92346634
Cl       6.38678979      -9.69190763       3.25150804
C        4.75234723      -9.17382805       3.37971263
C        3.95287108      -9.65708772       4.41181125
C        2.62860058      -9.22742992       4.52166842
C        2.11370352      -8.32588909       3.58854746
O        0.82453350      -7.88907153       3.70840443
C        2.89500001      -7.84471034       2.52812595
C        4.23557432      -8.27166073       2.45124428
C        2.32384150      -6.85686839       1.51927576
H        1.25475637      -7.06925402       1.38599106
N        2.97637591      -6.97345894       0.21892851
C        2.32877128      -6.11340913      -0.75737640
H        1.35840554      -6.55003315      -1.02824066
N        2.05455383      -4.75211943      -0.30929867
C        2.14609136      -4.44244348       0.93654877
C        2.52755718      -5.43178247       2.01357103
C        1.90359535      -3.02493360       1.34242828
C        2.48565547      -2.48726951       2.49731797
C        2.26434841      -1.15064313       2.83919480
C        1.45920022      -0.34733065       2.03241466
C        0.88193831      -0.88193831       0.88193831
C        1.10290098      -2.21264375       0.52852739
C        3.19521744      -6.10108520      -2.01189242
C        2.98336772      -7.04049658      -3.03621852
C        3.81713025      -7.06744431      -4.15654451
C        4.86788423      -6.16076181      -4.25994265
F        5.65509596      -6.21148064      -5.34505633
C        5.09884245      -5.22787626      -3.25358866
Br       6.53139530      -4.00059420      -3.38510806
C        4.27176943      -5.20079472      -2.13111327
H        4.35681803     -10.36124707       5.13505639
H        2.02097188      -9.60472608       5.33892548
H        0.41725403      -8.31133049       4.48378320
H        4.88188452      -7.89564984       1.65915009
H        2.90237850      -7.93341617      -0.10986049
H        3.57877963      -5.25346614       2.27738917
H        1.91950200      -5.25253460       2.90879622
H        3.13447755      -3.08318633       3.13333083
H        2.72693956      -0.73352380       3.73059830
H        1.29361014       0.69237244       2.30418988
H        0.65631668      -2.61916780      -0.37584536
H        2.17187040      -7.76110429      -2.96135126
H        3.65864350      -7.79332596      -4.94860077
H        4.45701761      -4.48387725      -1.33365394
