193
Properties=species:S:1:pos:R:3 pbc="F F F"
C        0.00000000       0.00000000       0.00000000
C        4.00359644       2.79348666      -4.31480546
O        3.25280775       3.36682320      -3.25004450
C        2.49742563       2.50219811      -2.49808758
C        2.07067875       1.24556538      -2.94824375
C        1.27012605       0.43472692      -2.13921478
C        0.88185547       0.88185547      -0.88185547
C        1.28606098       2.13300776      -0.42687297
C        2.10846435       2.95741768      -1.22224178
C        2.50929141       4.33891479      -0.71533151
H        3.47091413       4.60415124      -1.17502801
N        2.70515242       4.31715158       0.74192596
C        2.82125980       5.48398638       1.28694641
C        2.84863976       6.73022861       0.43256245
C        1.70951342       6.64377819      -0.58802908
H        1.99656152       7.25494397      -1.45390869
N        1.47588459       5.28911554      -1.09637591
C        0.42784447       7.23577558      -0.00894916
C       -0.54868176       6.41553077       0.58864124
C       -1.71396785       6.96560214       1.12041198
Cl      -2.89860487       5.94166583       1.83174091
C       -1.92519622       8.34136670       1.08160909
C       -0.96094231       9.17460577       0.51391810
C        0.20452393       8.62077261      -0.01954898
O        1.16071879       9.43875878      -0.55372719
C        2.98041890       5.58868332       2.76338391
C        3.58451349       4.52626898       3.44882719
C        3.74145881       4.57733930       4.83559202
C        3.28624622       5.68831837       5.54403914
C        2.66957126       6.73622353       4.86325462
Br       2.03171994       8.23196148       5.83059839
C        2.50795129       6.69436798       3.47691915
H        4.68292512       3.56305901      -4.69410558
H        3.34929026       2.49400520      -5.13951117
H        4.61309755       1.95283683      -3.96619579
H        2.32917264       0.87608891      -3.93486800
H        0.94686111      -0.53539406      -2.50474591
H        0.96514306       2.48679578       0.55141945
H        2.82453274       7.65407347       1.01376882
H        3.81433471       6.72453717      -0.09197487
H        1.39707115       5.30192048      -2.11055342
H       -0.40050898       5.33764190       0.63074209
H       -2.83528128       8.76877896       1.49496621
H       -1.13430941      10.24660283       0.49997724
H        0.83327372      10.35412145      -0.54302071
H        3.93392760       3.65047597       2.90397632
H        4.21104519       3.74886135       5.35896772
H        3.40680844       5.72081999       6.62424318
H        1.98989744       7.50598649       2.97779401
C       -3.86757992      -2.83104116      -4.41326748
O       -3.26340996      -3.36570088      -3.24056461
C       -2.49780462      -2.50222187      -2.49768483
C       -1.92249036      -1.33170013      -3.01029740
C       -1.12170830      -0.52016916      -2.20219029
C       -0.88185547      -0.88185547      -0.88185547
C       -1.43470418      -2.04837798      -0.36285955
C       -2.25954290      -2.87031325      -1.15826767
C       -2.82522356      -4.16174256      -0.57657158
H       -3.76532215      -4.38663860      -1.09813263
N       -3.13904294      -3.99125816       0.84992306
C       -3.40582688      -5.08992399       1.47745108
C       -3.47517146      -6.40208768       0.73095321
C       -2.25183582      -6.50406471      -0.18542016
H       -2.52013434      -7.16541068      -1.01986916
N       -1.85439757      -5.22546281      -0.78151565
C       -1.08206637      -7.14566359       0.55516075
C       -0.08818001      -6.35869661       1.16866885
C        0.97385192      -6.95329517       1.84822094
Cl       2.18331116      -5.97118795       2.57655674
C        1.06154740      -8.33968207       1.94357329
C        0.07616599      -9.13784678       1.36193542
C       -0.98556115      -8.53965446       0.68037010
O       -1.96435017      -9.32030570       0.13145111
C       -3.69632702      -5.04624732       2.93685602
C       -4.25627800      -3.87925450       3.47357723
C       -4.53223040      -3.79070284       4.83972715
C       -4.24059592      -4.86668124       5.67675171
C       -3.66722898      -6.01990024       5.14458904
Br      -3.25092635      -7.46936606       6.28720938
C       -3.38751169      -6.11794676       3.78005833
H       -4.58011963      -3.57263065      -4.78733942
H       -3.12230488      -2.66339440      -5.19710734
H       -4.42500138      -1.91430993      -4.19281887
H       -2.06318238      -1.03325843      -4.04368874
H       -0.68220123       0.38235101      -2.61636275
H       -1.22994351      -2.33721085       0.66663497
H       -3.58372277      -7.26801208       1.38689746
H       -4.38926172      -6.36368463       0.12209960
H       -1.69283890      -5.33699688      -1.77970928
H       -0.14067404      -5.27286441       1.10714762
H        1.89135350      -8.80206447       2.47217949
H        0.15185126     -10.21736993       1.45320249
H       -1.72356881     -10.25498826       0.24814119
H       -4.47794958      -3.03059957       2.82812190
H       -4.96647658      -2.88181130       5.24734905
H       -4.45320802      -4.79062227       6.74044504
H       -2.90565540      -7.01194042       3.39950590
C       -3.10515958       3.38934989       4.61737908
O       -3.32860739       3.32812366       3.21294440
C       -2.50033934       2.50108890       2.49628307
C       -1.23635541       2.08882980       2.93930267
C       -0.43187222       1.27575212       2.13644342
C       -0.88185547       0.88185547       0.88185547
C       -2.12859937       1.29474904       0.42259329
C       -2.96132942       2.10075508       1.22603932
C       -4.30869504       2.56884864       0.68599402
H       -4.98023089       2.72973449       1.54012799
N       -4.91251119       1.53181475      -0.16394790
C       -5.93898769       1.92454098      -0.84522888
C       -6.49125930       3.31960166      -0.66455504
C       -5.32377494       4.31098237      -0.69343663
H       -5.63079760       5.19743723      -0.12282066
N       -4.10666238       3.80626914      -0.05155549
C       -5.03849502       4.75825590      -2.12418171
C       -4.03833049       4.13631634      -2.89643906
C       -3.78848304       4.54751424      -4.20477496
Cl      -2.55166184       3.78243180      -5.12277360
C       -4.53618145       5.57408174      -4.77570180
C       -5.54654128       6.18926519      -4.03606111
C       -5.79347480       5.77657649      -2.72520577
O       -6.79953316       6.36211774      -2.00844614
C       -6.60741851       0.97269054      -1.77439073
C       -6.54676557      -0.39749123      -1.48731907
C       -7.14859776      -1.32599012      -2.33940155
C       -7.80635705      -0.88799492      -3.48783668
C       -7.85052311       0.47350412      -3.78148706
Br      -8.72368984       1.06261927      -5.35322607
C       -7.25172338       1.40951250      -2.93583576
H       -3.94373541       3.93268619       5.06366811
H       -2.19102225       3.94641055       4.84537383
H       -3.08156136       2.38860167       5.06196715
H       -0.83979519       2.40070048       3.89963388
H        0.54574228       0.96725543       2.49469981
H       -2.46985043       0.99853903      -0.56787007
H       -7.27535829       3.57090650      -1.38142740
H       -6.96601276       3.33843341       0.32640058
H       -3.72379493       4.50724882       0.57850131
H       -3.44470213       3.33010613      -2.46841742
H       -4.33896057       5.89502677      -5.79545588
H       -6.12864038       6.98139140      -4.49771561
H       -7.18274446       7.08343922      -2.53576781
H       -6.02640723      -0.74856951      -0.59741047
H       -7.09658027      -2.38665587      -2.10898558
H       -8.26922442      -1.61559966      -4.15023951
H       -7.26796180       2.45899769      -3.20886956
C        3.07824330      -3.42327884       4.61036641
O        3.33114492      -3.32551803       3.21301250
C        2.50044560      -2.50099715       2.49626857
C        1.21804015      -2.12677358       2.91967415
C        0.41332754      -1.31373676       2.11700345
C        0.88185547      -0.88185547       0.88185547
C        2.14740163      -1.25672710       0.44181298
C        2.98017481      -2.06208664       1.24586237
C        4.34931627      -2.48809379       0.72612764
H        5.00532403      -2.65334716       1.59142219
N        4.94819525      -1.41912186      -0.08693907
C        5.99802082      -1.77368730      -0.75340834
C        6.57746785      -3.15995737      -0.59111930
C        5.43353535      -4.17591843      -0.66813310
H        5.74780473      -5.06802424      -0.11041480
N        4.19151345      -3.71273426      -0.04287167
C        5.18999803      -4.59702097      -2.11444979
C        4.19333333      -3.98002827      -2.89515383
C        3.98170103      -4.36705027      -4.21752899
Cl       2.74848337      -3.60891657      -5.14607989
C        4.76473588      -5.36377082      -4.79394531
C        5.77215725      -5.97305127      -4.04546316
C        5.98078795      -5.58466019      -2.72060262
O        6.98374631      -6.16389243      -1.99443398
C        6.66514703      -0.78664803      -1.64607675
C        6.56732910       0.57504916      -1.33032466
C        7.16671754       1.53554451      -2.14796695
C        7.85932184       1.13813347      -3.29066292
C        7.94061041      -0.21510035      -3.61317059
Br       8.86124662      -0.74927319      -5.17743677
C        7.34456380      -1.18288975      -2.80205343
H        3.91881076      -3.95792360       5.06335535
H        2.17208702      -4.00534090       4.80537870
H        3.02231437      -2.43356410       5.07625171
H        0.80754411      -2.46886299       3.86372245
H       -0.57864534      -1.03500473       2.45985357
H        2.50363273      -0.93083034      -0.53394367
H        7.38263427      -3.37771014      -1.29550703
H        7.03057587      -3.19064551       0.40962537
H        3.81074695      -4.43599668       0.56280142
H        3.57240530      -3.19694128      -2.46295574
H        4.59731225      -5.66592695      -5.82470773
H        6.38198548      -6.74155755      -4.51122685
H        7.39463715      -6.86453181      -2.52875308
H        6.01971191       0.89443840      -0.44484626
H        7.08575244       2.58934613      -1.89546749
H        8.32016135       1.89049914      -3.92627696
H        7.39045472      -2.22534451      -3.09770931
