170
Properties=species:S:1:pos:R:3 pbc="F F F"
C        1.78857072       1.78857072      -1.78857072
N        1.77612288       1.70881798      -3.12280586
N        2.66850387       2.66224536      -3.45526513
C        2.96613715       2.91491860      -4.84158907
C        3.17779316       3.26745321      -2.33939985
N        2.63752888       2.72785225      -1.27236163
S        4.30427065       4.58311287      -2.42206289
C        4.96945546       4.62759703      -0.75150834
C        4.10221491       4.73823882       0.34942273
C        4.59643765       4.79776340       1.65421871
C        5.96714866       4.76497057       1.87170417
C        6.84420566       4.70720418       0.78789301
C        6.36597124       4.66411890      -0.52962160
N        7.25488086       4.64992768      -1.63681034
C        8.58864419       5.01459717      -1.61243482
O        9.22632977       5.45509354      -0.66789929
C        9.30929434       4.81557582      -2.88369563
C        9.57376030       3.49541768      -3.27272676
C       10.38231724       3.24667501      -4.38044094
C       10.92705105       4.31089829      -5.09891509
C       10.65090407       5.62784767      -4.72184807
C        9.84026510       5.88591391      -3.61093844
H        2.64228758       3.92863855      -5.08858507
H        2.43110334       2.19474201      -5.46636028
H        4.04195557       2.79992620      -4.99516405
H        3.02437139       4.77300654       0.20694268
H        3.91168676       4.86111334       2.49400763
H        6.36333147       4.79681755       2.88332253
H        7.90784121       4.68457843       1.00552841
H        6.82475052       4.49556719      -2.54268392
H        9.19149343       2.66265699      -2.68516546
H       10.61413221       2.22230279      -4.66677436
H       11.57897367       4.11630332      -5.94781994
H       11.08650629       6.44554355      -5.29165837
C        9.56851570       7.26170636      -3.28391033
C        9.34092557       8.41393255      -3.01002430
Br       8.97293158      10.27698483      -2.56717374
C       -1.78857072      -1.78857072      -1.78857072
N       -2.38433235      -2.89367028      -1.32974408
N       -3.05076286      -3.31125367      -2.42399783
C       -3.84778505      -4.50943887      -2.36542089
C       -2.83804533      -2.46739574      -3.47920515
N       -2.03896771      -1.49786232      -3.10091273
S       -3.60469959      -2.68561784      -5.01912899
C       -2.61432838      -1.63877402      -6.09545842
C       -2.42853229      -0.28111698      -5.78138173
C       -1.68295176       0.55659809      -6.61362867
C       -1.12854908       0.04882022      -7.78068620
C       -1.34597187      -1.28350016      -8.13404480
C       -2.10629824      -2.13440195      -7.31901154
N       -2.36708640      -3.47822787      -7.69630462
C       -2.24283709      -4.00314100      -8.96969809
O       -1.94091300      -3.41259206      -9.99581753
C       -2.48548994      -5.45448152      -9.06859434
C       -1.52058366      -6.30666379      -8.51465728
C       -1.61524164      -7.68333078      -8.71086076
C       -2.66864763      -8.21016883      -9.45804797
C       -3.64041519      -7.36296508      -9.99721954
C       -3.55241703      -5.97980925      -9.80489116
H       -4.89445872      -4.24010680      -2.52494568
H       -3.73297180      -4.97589706      -1.38333677
H       -3.49960909      -5.19948654      -3.13795019
H       -2.85774613       0.14416863      -4.87685775
H       -1.53120873       1.59719128      -6.34477502
H       -0.53485318       0.68751373      -8.42948704
H       -0.89400546      -1.63684950      -9.05603627
H       -2.81934750      -4.05167113      -6.99198300
H       -0.67030721      -5.89541945      -7.97358922
H       -0.85071434      -8.34502412      -8.30747091
H       -2.72805134      -9.28229802      -9.63274756
H       -4.45331510      -7.79063303     -10.57976007
C       -4.59540008      -5.15747158     -10.36126074
C       -5.46889839      -4.46876377     -10.82722025
Br      -6.88127127      -3.35518150     -11.58063738
C       -1.78857072       1.78857072       1.78857072
N       -2.16405302       3.01879587       1.42489783
N       -2.92524652       3.38642851       2.47433933
C       -3.54509739       4.68636100       2.49118642
C       -2.97976997       2.39249289       3.41238337
N       -2.26439271       1.37240513       3.00094493
S       -3.93032284       2.52232400       4.85679957
C       -3.25118283       1.21220344       5.88517456
C       -3.19641443      -0.10656381       5.40118037
C       -2.69471449      -1.14433773       6.18960558
C       -2.25766734      -0.87713566       7.47988338
C       -2.35247492       0.41640850       7.99463342
C       -2.86948315       1.46708337       7.22314521
N       -3.00887316       2.77522975       7.75751597
C       -3.00717732       3.10891120       9.09958766
O       -2.93752497       2.35402376      10.05777387
C       -3.07407568       4.55545284       9.37903728
C       -1.93719094       5.32020746       9.08450634
C       -1.88279906       6.65929138       9.46734275
C       -2.95851633       7.23540076      10.14294734
C       -4.09932192       6.47842715      10.42285074
C       -4.16164590       5.13346284      10.04200871
H       -4.62960889       4.55575392       2.47414839
H       -3.22835752       5.25260427       1.61124384
H       -3.22897152       5.21313747       3.39493682
H       -3.53874061      -0.34485291       4.39654756
H       -2.63944118      -2.15289919       5.79225048
H       -1.85249607      -1.67389877       8.09822919
H       -1.99960376       0.57856015       9.00872732
H       -3.27550234       3.49429148       7.09320781
H       -1.07624004       4.86098864       8.60208719
H       -0.98896066       7.24742963       9.26681908
H       -2.90533799       8.27335394      10.46440500
H       -4.92761302       6.94295157      10.95314361
C       -5.37164986       4.40915406      10.33332847
C       -6.38502818       3.80254546      10.57730877
Br      -8.02357522       2.82171066      10.97180428
C        1.78857072      -1.78857072       1.78857072
N        1.88575986      -1.61202160       3.10996526
N        2.73017038      -2.60550814       3.45033584
C        3.11575484      -2.77987550       4.82701447
C        3.10609112      -3.32744528       2.35110983
N        2.52479270      -2.82585249       1.28709757
S        4.13770202      -4.71735822       2.45438617
C        4.66594149      -4.93389363       0.74872570
C        3.70995455      -5.05587702      -0.27480057
C        4.09557024      -5.24767295      -1.60326085
C        5.44398632      -5.33740880      -1.92098006
C        6.40458678      -5.27000142      -0.91107136
C        6.03467246      -5.09487818       0.43016110
N        7.00573316      -5.07003521       1.46585051
C        8.30375452      -5.53817962       1.37374203
O        8.83256264      -6.09396220       0.42279776
C        9.13360893      -5.30461911       2.57033776
C        9.52211304      -3.98441972       2.83537198
C       10.43024082      -3.72005981       3.85913255
C       10.95100643      -4.76881280       4.61704520
C       10.55204969      -6.08404935       4.36450077
C        9.64093021      -6.35774877       3.33843846
H        2.73980181      -3.74485093       5.17485846
H        2.68432093      -1.97705297       5.43083174
H        4.20574572      -2.73815578       4.89314431
H        2.64677393      -4.99630419      -0.05264287
H        3.34477360      -5.31798636      -2.38396748
H        5.75692389      -5.47289964      -2.95299705
H        7.44691594      -5.34596539      -1.20599010
H        6.65965269      -4.81771180       2.38563714
H        9.15638055      -3.16901669       2.21391863
H       10.75694393      -2.69884645       4.04741899
H       11.67934006      -4.56478336       5.39897350
H       10.97052231      -6.88990336       4.96328253
C        9.24599344      -7.72822751       3.13991144
C        8.91523390      -8.87600345       2.97364507
Br       8.38042368     -10.73186007       2.70480640
C       -0.00445707       0.01189536      -1.78238275
H       -0.66409135       0.67374010      -2.43557963
H        0.65740317      -0.63156657      -2.45157240
C       -0.90989263      -0.90692880      -0.91072765
C        0.90977584       0.90977584      -0.90977584
C       -0.00465871       1.77757030       0.00794375
H       -0.66225468       2.44313916      -0.64384735
H        0.64322798       2.43503045       0.67728295
C       -1.78241447       0.00034974      -0.00472694
H       -2.45427497      -0.65498947       0.64260836
H       -2.43311707       0.67328779      -0.65473579
C       -0.91132561       0.90220522       0.91563759
C       -0.01476271      -0.02253852       1.78660255
H       -0.67934791      -0.69751639       2.42135241
H        0.63392994       0.61504881       2.47327442
C        0.01484550      -1.77751727      -0.01636693
H        0.67870853      -2.42144646      -0.68295456
H       -0.62264859      -2.45592969       0.64226336
C        1.78714474       0.01002794       0.00389507
H        2.44202412       0.67113390       0.66197326
H        2.45385902      -0.65136977      -0.64189061
C        0.91606151      -0.90478549       0.90901405
