149
Properties=species:S:1:pos:R:3 pbc="F F F"
C        0.00000000       0.00000000       0.00000000
C        0.87866670       0.87866670      -0.87866670
N        0.86621885       0.79891396      -2.21290183
N        1.75859985       1.75234133      -2.54536110
C        2.05623312       2.00501457      -3.93168505
C        2.26788914       2.35754919      -1.42949583
N        1.72762486       1.81794823      -0.36245760
S        3.39436663       3.67320885      -1.51215887
C        4.05955143       3.71769300       0.15839568
C        3.19231088       3.82833480       1.25932675
C        3.68653363       3.88785938       2.56412274
C        5.05724464       3.85506655       2.78160820
C        5.93430164       3.79730016       1.69779704
C        5.45606721       3.75421488       0.38028243
N        6.34497684       3.74002366      -0.72690631
C        7.67874017       4.10469315      -0.70253079
O        8.31642575       4.54518951       0.24200473
C        8.39939032       3.90567180      -1.97379161
C        8.66385628       2.58551365      -2.36282273
C        9.47241321       2.33677098      -3.47053692
C       10.01714702       3.40099427      -4.18901107
C        9.74100004       4.71794365      -3.81194404
C        8.93036108       4.97600988      -2.70103441
H        1.73238356       3.01873452      -4.17868105
H        1.52119932       1.28483799      -4.55645625
H        3.13205154       1.89002217      -4.08526003
H        2.11446737       3.86310252       1.11684671
H        3.00178274       3.95120932       3.40391165
H        5.45342744       3.88691352       3.79322656
H        6.99793718       3.77467441       1.91543243
H        5.91484650       3.58566316      -1.63277990
H        8.28158940       1.75275296      -1.77526143
H        9.70422819       1.31239877      -3.75687033
H       10.66906964       3.20639929      -5.03791592
H       10.17660226       5.53563953      -4.38175434
C        8.65861167       6.35180234      -2.37400631
C        8.43102154       7.50402852      -2.10012027
Br       8.06302756       9.36708081      -1.65726972
C       -0.87866670      -0.87866670      -0.87866670
N       -1.45987911      -1.99347181      -0.42468373
N       -2.13260223      -2.40712151      -1.51657854
C       -2.91793205      -3.61318198      -1.46181872
C       -1.93755064      -1.55159628      -2.56578724
N       -1.14397523      -0.57818747      -2.18586798
S       -2.71649052      -1.76271694      -4.10052689
C       -1.74592599      -0.69677169      -5.17615107
C       -1.56976656       0.65959832      -4.85115068
C       -0.83976068       1.51189220      -5.68240179
C       -0.29160145       1.02012058      -6.85922213
C       -0.49998562      -0.31084691      -7.22297222
C       -1.24477479      -1.17630483      -6.40892005
N       -1.49663756      -2.51896024      -6.79630901
C       -1.37942841      -3.03089639      -8.07563931
O       -1.09256473      -2.42809481      -9.09895099
C       -1.60956573      -4.48346164      -8.18582635
C       -0.63169557      -5.33168780      -7.64880929
C       -0.71544912      -6.70730542      -7.85696657
C       -1.77086578      -7.23701984      -8.59926674
C       -2.75541282      -6.39397230      -9.12150261
C       -2.67841467      -5.01189272      -8.91709798
H       -3.96849390      -3.35216498      -1.60914025
H       -2.78965244      -4.08760779      -0.48523332
H       -2.57061530      -4.29277934      -2.24393910
H       -1.99443486       1.07248003      -3.93876834
H       -0.69514215       2.55132604      -5.40526429
H        0.29008459       1.67029689      -7.50749589
H       -0.05339475      -0.65142475      -8.15235965
H       -1.93698616      -3.10308547      -6.09321794
H        0.21975441      -4.91754700      -7.11181121
H        0.05889355      -7.36553706      -7.46685378
H       -1.82198285      -8.30799577      -8.78340623
H       -3.56972464      -6.82380311      -9.70046838
C       -3.73410166      -4.19421463      -9.45610403
C       -4.61823952      -3.50940923      -9.90752159
Br      -6.04781565      -2.40213681     -10.63742562
C       -0.87866670       0.87866670       0.87866670
N       -1.21834688       2.12488933       0.53479844
N       -1.99484104       2.48631389       1.57514736
C       -2.58586723       3.79930585       1.60775967
C       -2.09275431       1.47326984       2.48891001
N       -1.39105948       0.44658031       2.07039090
S       -3.07277685       1.59253850       3.91441899
C       -2.44647908       0.24478308       4.92758659
C       -2.41004864      -1.06380451       4.41507479
C       -1.94959285      -2.12998373       5.19066115
C       -1.53615941      -1.90153188       6.49607546
C       -1.61386861      -0.61792804       7.03786418
C       -2.08972323       0.46111715       6.27915928
N       -2.21211381       1.75989320       6.83989980
C       -2.23351135       2.06353645       8.18891630
O       -2.20245604       1.28614912       9.13100537
C       -2.27457558       3.50465611       8.49962203
C       -1.11457139       4.24972589       8.24789538
C       -1.03914552       5.57838683       8.66218876
C       -2.11687204       6.16364231       9.32663800
C       -3.28028962       5.42676387       9.56383424
C       -3.36381963       4.09236151       9.15122423
H       -3.67234619       3.69379782       1.56365512
H       -2.23669747       4.37762134       0.74817475
H       -2.27873727       4.29854134       2.53005513
H       -2.73465992      -1.27186050       3.39792376
H       -1.90773220      -3.13045961       4.77180780
H       -1.16295997      -2.72084729       7.10500172
H       -1.28062511      -0.48642103       8.06297507
H       -2.44752344       2.49941865       6.18634747
H       -0.25329617       3.78189015       7.77441747
H       -0.12812761       6.15036517       8.49500450
H       -2.04795717       7.19271662       9.67271106
H       -4.10989195       5.89809596      10.08600822
C       -4.59593407       3.38945073       9.39903553
C       -5.62782991       2.80076295       9.60657748
Br      -7.29631821       1.84890459       9.94215527
C        0.87866670      -0.87866670       0.87866670
N        0.93482501      -0.73662391       2.20658572
N        1.79714803      -1.71587543       2.54327883
C        2.14980595      -1.91817054       3.92495625
C        2.22296313      -2.39622067       1.43575036
N        1.65705255      -1.88104333       0.36993481
S        3.28991097      -3.75985174       1.52997164
C        3.87029558      -3.91404066      -0.16548749
C        2.94634949      -4.03330823      -1.21833879
C        3.37324681      -4.17723091      -2.54020746
C        4.73180507      -4.22125025      -2.82235233
C        5.66226124      -4.15600975      -1.78446624
C        5.25117233      -4.02867694      -0.44984962
N        6.19257067      -4.00640554       0.61293059
C        7.50522585      -4.43623834       0.54449991
O        8.07511561      -4.95054375      -0.40604884
C        8.29529340      -4.21376492       1.76979540
C        8.63929147      -2.89141198       2.08148921
C        9.51141979      -2.63118748       3.13711384
C       10.04051474      -3.68618093       3.88045668
C        9.68559261      -5.00420960       3.58108552
C        8.81079928      -5.27378351       2.52282258
H        1.79169543      -2.90239922       4.23570449
H        1.67975479      -1.14463524       4.53810352
H        3.23599303      -1.84863117       4.02270955
H        1.87625802      -4.00897845      -1.02451330
H        2.64626939      -4.24607899      -3.34326798
H        5.07642375      -4.31919660      -3.84850594
H        6.71395927      -4.19524792      -2.05202803
H        5.81461973      -3.78947487       1.52919496
H        8.26792992      -2.06918829       1.47248559
H        9.80413194      -1.60712615       3.36223920
H       10.74126685      -3.48436539       4.68775261
H       10.11000431      -5.81481914       4.16917268
C        8.45996964      -6.64841594       2.27603474
C        8.16614982      -7.79967061       2.06934991
Br       7.69106802      -9.66115202       1.73515804
