118
Properties=species:S:1:pos:R:3 pbc="F F F"
C        0.47502501       3.97307136      -1.48989226
C        0.99962710       2.94012091      -2.47894480
C        1.83328290       1.83328290      -1.83328290
H        2.61318096       2.24910999      -1.18665563
C        2.47803013       0.90653472      -2.87021402
O        2.30512180       1.07413200      -4.07447042
N        3.29196781      -0.06430580      -2.30062218
C        4.01043623      -1.08219917      -2.96117451
C        4.03132143      -1.25386247      -4.34716086
C        4.75843940      -2.30185110      -4.92477617
C        5.47153071      -3.18076345      -4.11556830
Br       6.44934802      -4.59666345      -4.89602018
C        5.46644574      -3.02106706      -2.73297430
C        4.73561867      -1.97483907      -2.15953556
H       -0.00279618       4.79711779      -2.03001716
H        1.28697283       4.39033544      -0.88638815
H       -0.27369736       3.54582711      -0.81663005
H        1.62098592       3.46909447      -3.21312768
H        0.15649810       2.51650961      -3.03896815
H        3.31431433      -0.09181559      -1.28787832
H        3.48605615      -0.59445082      -5.01515117
H        4.75407800      -2.41882349      -6.00553769
H        6.01964494      -3.70388310      -2.09430690
H        4.74324560      -1.87294383      -1.07726124
C       -1.98806926      -0.17532460      -3.77459476
C       -2.73750582      -0.96903578      -2.71215120
C       -1.83328290      -1.83328290      -1.83328290
H       -1.16045908      -2.44881382      -2.43967368
C       -2.62993726      -2.73823361      -0.88660799
O       -3.85785998      -2.72541577      -0.87044847
N       -1.82297785      -3.57691445      -0.12839189
C       -2.22758622      -4.51015561       0.84833027
C       -3.55855440      -4.75791173       1.19184631
C       -3.87626826      -5.69122676       2.18613054
C       -2.86092814      -6.38371987       2.83831246
Br      -3.29082265      -7.64021969       4.18233759
C       -1.52948236      -6.15349867       2.50462805
C       -1.21608040      -5.21739139       1.51315663
H       -2.70116663       0.31924794      -4.44242008
H       -1.35362132      -0.82848241      -4.38159269
H       -1.36093646       0.60357742      -3.33140076
H       -3.45581991      -1.61898170      -3.22840647
H       -3.33238854      -0.27968147      -2.09990586
H       -0.82295502      -3.45242861      -0.23499343
H       -4.38133502      -4.23731230       0.71189080
H       -4.91928376      -5.86200313       2.44049468
H       -0.73096962      -6.68922969       3.01013058
H       -0.16892926      -5.05153253       1.27289877
C       -0.39349224       1.60924185       3.93525453
C       -1.75331767       1.37567472       3.28970041
C       -1.83328290       1.83328290       1.83328290
H       -1.47002011       2.86004150       1.71888496
C       -3.25409857       1.73418669       1.26649361
O       -4.18782539       1.31852439       1.94737444
N       -3.35484252       2.20858468      -0.03514302
C       -4.50249831       2.24088239      -0.85396914
C       -5.76676086       1.80678358      -0.44892462
C       -6.85391858       1.85736421      -1.32991831
C       -6.67957234       2.34720838      -2.62044518
Br      -8.14659515       2.41154970      -3.80944010
C       -5.42796290       2.78930640      -3.03891632
C       -4.34343306       2.73362614      -2.15674404
H       -0.44353274       1.37667032       5.00413570
H       -0.08039073       2.65261156       3.83069413
H        0.37824966       0.96967618       3.49733328
H       -2.49856597       1.92850525       3.87613685
H       -2.01765387       0.31456434       3.37975766
H       -2.48850273       2.49672086      -0.47484654
H       -5.94649051       1.41350919       0.54675681
H       -7.82674789       1.50769086      -0.99364654
H       -5.28347293       3.17193289      -4.04533708
H       -3.37477051       3.08046744      -2.50767494
C        1.61276548      -3.93404229       0.39118085
C        1.37720414      -3.29007436       1.75141431
C        1.83328290      -1.83328290       1.83328290
H        2.86028780      -1.71750271       1.47115606
C        1.73221008      -1.26800672       3.25456206
O        1.31629749      -1.95022941       4.18719733
N        2.20521203       0.03400002       3.35707217
C        2.23555376       0.85171527       4.50557307
C        1.80060151       0.44498134       5.76899964
C        1.84922442       1.32494248       6.85708253
C        2.33795709       2.61612860       6.68450706
Br       2.39965647       3.80372631       8.15277458
C        2.78088259       3.03628450       5.43375489
C        2.72715862       2.15513708       4.34829362
H        1.38120821      -5.00320343       0.43992713
H        2.65634140      -3.82813303       0.07922199
H        0.97353191      -3.49598929      -0.38076141
H        1.92987681      -3.87670226       2.49662901
H        0.31592162      -3.38144958       2.01460467
H        2.49377167       0.47485178       2.49145717
H        1.40813975      -0.55126899       5.94734777
H        1.49891887       0.98735521       7.82922855
H        3.16265074       4.04322849       5.29064648
H        3.07461339       2.50737651       3.38032613
C       -0.00445707       0.01189536      -1.78238275
H       -0.66409135       0.67374010      -2.43557963
H        0.65740317      -0.63156657      -2.45157240
C       -0.90989263      -0.90692880      -0.91072765
C        0.90977584       0.90977584      -0.90977584
C       -0.00465871       1.77757030       0.00794375
H       -0.66225468       2.44313916      -0.64384735
H        0.64322798       2.43503045       0.67728295
C       -1.78241447       0.00034974      -0.00472694
H       -2.45427497      -0.65498947       0.64260836
H       -2.43311707       0.67328779      -0.65473579
C       -0.91132561       0.90220522       0.91563759
C       -0.01476271      -0.02253852       1.78660255
H       -0.67934791      -0.69751639       2.42135241
H        0.63392994       0.61504881       2.47327442
C        0.01484550      -1.77751727      -0.01636693
H        0.67870853      -2.42144646      -0.68295456
H       -0.62264859      -2.45592969       0.64226336
C        1.78714474       0.01002794       0.00389507
H        2.44202412       0.67113390       0.66197326
H        2.45385902      -0.65136977      -0.64189061
C        0.91606151      -0.90478549       0.90901405
