146
Properties=species:S:1:pos:R:3 pbc="F F F"
C        1.78858881       1.78858881      -1.78858881
C        3.07147611       1.38809676      -2.13196647
N        3.90162738       2.12193935      -2.91123325
C        3.41876330       3.30459330      -3.36778962
C        2.14675993       3.78718069      -3.07791203
C        1.31724391       3.00740774      -2.26662482
C        1.64140944       5.07003721      -3.61332125
O        0.53807519       5.52024780      -3.35327025
O        2.55294796       5.62313094      -4.44744715
C        2.11655567       6.78961032      -5.16289070
C        1.36555991       6.38407729      -6.40569762
C        0.08269271       6.73846014      -6.57773167
C       -0.71864437       6.36033002      -7.75084745
O       -1.87613815       6.74047823      -7.86930350
O       -0.09879800       5.56137012      -8.69549611
C        1.24783906       5.17474892      -8.55372992
C        1.76762196       4.37760952      -9.57477797
C        3.09335689       3.96928872      -9.49797306
Br       3.82435746       2.88072532     -10.85795656
C        3.88770281       4.35973277      -8.42174876
C        3.34883036       5.16160823      -7.40734850
C        2.01038233       5.57525583      -7.45256645
H        3.48448949       0.44387949      -1.78727383
H        4.11664610       3.85487210      -3.99287493
H        0.31407764       3.34786991      -2.02026793
H        3.01007541       7.36271933      -5.43598966
H        1.52917975       7.44565183      -4.50786973
H       -0.45532066       7.32262770      -5.83784497
H        1.13732771       4.08513303     -10.40964025
H        4.92666971       4.04408708      -8.35865846
H        4.00212199       5.44376920      -6.58576341
C       -1.78858881      -1.78858881      -1.78858881
C       -1.95603189      -3.13507671      -1.50043074
N       -2.72520122      -3.96918407      -2.24041469
C       -3.35571526      -3.42448823      -3.31094274
C       -3.24918272      -2.08651186      -3.67615808
C       -2.44320061      -1.25406079      -2.89401507
C       -3.97100565      -1.51833365      -4.83542860
O       -3.87358489      -0.35367253      -5.18433582
O       -4.76630182      -2.45699538      -5.40022885
C       -5.64639692      -1.98853214      -6.43412762
C       -6.90522426      -1.42392090      -5.82618966
C       -7.24233700      -0.13911970      -6.01742782
C       -8.44029813       0.48571774      -5.43795269
O       -8.71479827       1.65504258      -5.67388789
O       -9.22421051      -0.31138765      -4.62247006
C       -8.90710761      -1.66580977      -4.40340052
C       -9.77673374      -2.37224654      -3.57102917
C       -9.52354626      -3.71535418      -3.32171823
Br     -10.67502260      -4.69720712      -2.19080963
C       -8.42345587      -4.34278159      -3.90294687
C       -7.56282888      -3.61773268      -4.73722554
C       -7.78663756      -2.25802541      -4.99354164
H       -1.46949385      -3.59934361      -0.64680535
H       -3.96526722      -4.12900877      -3.87011714
H       -2.33719284      -0.20089629      -3.14412634
H       -5.89093359      -2.84525649      -7.07259432
H       -5.12982241      -1.26984002      -7.08303888
H       -6.62896833       0.53300057      -6.60918425
H      -10.63266537      -1.87055755      -3.12887808
H       -8.22265032      -5.39460894      -3.71215598
H       -6.71659388      -4.14466012      -5.17040059
C       -1.78858881       1.78858881       1.78858881
C       -2.90764972       1.26483526       2.41905436
N       -3.72798605       1.99215160       3.21466233
C       -3.40568595       3.29857131       3.38688897
C       -2.30399611       3.91016136       2.79769519
C       -1.48079183       3.13228211       1.97820253
C       -1.96607937       5.33179548       3.02689305
O       -1.01760229       5.89140180       2.50258914
O       -2.82381393       5.88113763       3.91857449
C       -2.50372441       7.21217047       4.35316181
C       -1.50849970       7.16227635       5.48455876
C       -0.30148553       7.73579963       5.36159936
C        0.72683526       7.70749320       6.41187515
O        1.79913857       8.27686142       6.25592073
O        0.41733877       7.00946343       7.56594356
C       -0.84100374       6.40035515       7.73495902
C       -1.04190070       5.73354351       8.94456525
C       -2.26594819       5.11850814       9.17616234
Br      -2.56616336       4.19834936      10.79852663
C       -3.27479228       5.17762021       8.21677184
C       -3.05520528       5.85319428       7.00938753
C       -1.82466538       6.46956874       6.74397048
H       -3.18861190       0.22119705       2.30583387
H       -4.08772571       3.83979964       4.03686777
H       -0.60732015       3.57239721       1.50249812
H       -3.43418925       7.68081944       4.69377571
H       -2.15485510       7.81956234       3.50828387
H       -0.00044940       8.25023076       4.45447185
H       -0.24753230       5.69996319       9.68460551
H       -4.23531306       4.69931555       8.39478663
H       -3.86796031       5.87564715       6.28804714
C        1.78858881      -1.78858881       1.78858881
C        1.22313025      -2.67701239       2.69139669
N        1.94860195      -3.48714741       3.49905062
C        3.29815008      -3.40335642       3.38963973
C        3.95375187      -2.54506068       2.51304011
C        3.17530444      -1.71871420       1.69725783
C        5.42776128      -2.49679015       2.40021647
O        6.02136759      -1.73634008       1.65388557
O        5.99138594      -3.43350995       3.19863015
C        7.41071772      -3.60173187       3.05660710
C        7.70953726      -4.53496601       1.91083154
C        8.42582743      -4.11748238       0.85557471
C        8.73631109      -4.96274102      -0.30651902
O        9.42267955      -4.53747330      -1.22650926
O        8.21403336      -6.24418276      -0.30014790
C        7.46357235      -6.72081532       0.79193023
C        6.99762587      -8.03253829       0.68984530
C        6.25751913      -8.56491515       1.73818440
Br       5.60287850     -10.33350079       1.62666005
C        5.99590479      -7.80007566       2.87320389
C        6.47355352      -6.48592050       2.95831307
C        7.20997998      -5.91929306       1.90893157
H        0.14582512      -2.77178948       2.79802822
H        3.83753127      -4.07518117       4.05168068
H        3.65001393      -1.03655675       0.99564480
H        7.78802413      -4.02705341       3.99370686
H        7.90506955      -2.62772769       2.94990407
H        8.81164276      -3.10517422       0.78833503
H        7.21353006      -8.61787097      -0.19930003
H        5.41868434      -8.21357167       3.69715923
H        6.24737223      -5.92367710       3.86060526
C       -0.00445707       0.01189536      -1.78238275
H       -0.66409135       0.67374010      -2.43557963
H        0.65740317      -0.63156657      -2.45157240
C       -0.90989263      -0.90692880      -0.91072765
C        0.90977584       0.90977584      -0.90977584
C       -0.00465871       1.77757030       0.00794375
H       -0.66225468       2.44313916      -0.64384735
H        0.64322798       2.43503045       0.67728295
C       -1.78241447       0.00034974      -0.00472694
H       -2.45427497      -0.65498947       0.64260836
H       -2.43311707       0.67328779      -0.65473579
C       -0.91132561       0.90220522       0.91563759
C       -0.01476271      -0.02253852       1.78660255
H       -0.67934791      -0.69751639       2.42135241
H        0.63392994       0.61504881       2.47327442
C        0.01484550      -1.77751727      -0.01636693
H        0.67870853      -2.42144646      -0.68295456
H       -0.62264859      -2.45592969       0.64226336
C        1.78714474       0.01002794       0.00389507
H        2.44202412       0.67113390       0.66197326
H        2.45385902      -0.65136977      -0.64189061
C        0.91606151      -0.90478549       0.90901405
