154
Properties=species:S:1:pos:R:3 pbc="F F F"
C        1.78858881       1.78858881      -1.78858881
C        3.07147611       1.38809676      -2.13196647
N        3.90162738       2.12193935      -2.91123325
C        3.41876330       3.30459330      -3.36778962
C        2.14675993       3.78718069      -3.07791203
C        1.31724391       3.00740774      -2.26662482
C        1.64140944       5.07003721      -3.61332125
O        0.53807519       5.52024780      -3.35327025
O        2.55294796       5.62313094      -4.44744715
C        2.11655567       6.78961032      -5.16289070
C        1.36555991       6.38407729      -6.40569762
C        0.08269271       6.73846014      -6.57773167
C       -0.71864437       6.36033002      -7.75084745
O       -1.87613815       6.74047823      -7.86930350
O       -0.09879800       5.56137012      -8.69549611
C        1.24783906       5.17474892      -8.55372992
C        1.76762196       4.37760952      -9.57477797
C        3.09335689       3.96928872      -9.49797306
C        3.88770281       4.35973277      -8.42174876
C        3.34883036       5.16160823      -7.40734850
C        2.01038233       5.57525583      -7.45256645
H        3.48448949       0.44387949      -1.78727383
H        4.11664610       3.85487210      -3.99287493
H        0.31407764       3.34786991      -2.02026793
H        3.01007541       7.36271933      -5.43598966
H        1.52917975       7.44565183      -4.50786973
H       -0.45532066       7.32262770      -5.83784497
H        1.13732771       4.08513303     -10.40964025
H        4.92666971       4.04408708      -8.35865846
H        4.00212199       5.44376920      -6.58576341
C        3.65056034       3.13953386     -10.53461726
C        4.11721823       2.44461416     -11.40280677
Br       4.87176457       1.32098778     -12.80659578
C       -1.78858881      -1.78858881      -1.78858881
C       -1.25488087      -2.88207127      -2.45458720
N       -1.98266422      -3.70360760      -3.24852816
C       -3.30250532      -3.41579463      -3.37284628
C       -3.92550958      -2.34343436      -2.74290872
C       -3.14447703      -1.51212745      -1.93467199
C       -5.37317551      -2.07240802      -2.87918437
O       -5.93337464      -1.12545421      -2.35276439
O       -5.96474715      -3.03865399      -3.62012491
C       -7.39828904      -2.98196814      -3.68879951
C       -8.00172114      -3.66550747      -2.48810621
C       -8.78061401      -2.98620377      -1.63206675
C       -9.38340538      -3.57952968      -0.42959803
O      -10.11294454      -2.91879595       0.29809690
O       -9.08079346      -4.90507793      -0.17219683
C       -8.27300966      -5.65291082      -1.05039743
C       -8.04546872      -6.98254230      -0.69199844
C       -7.26296433      -7.77626727      -1.52138708
C       -6.72476292      -7.25027569      -2.69414573
C       -6.96570579      -5.91387568      -3.03820562
C       -7.73918981      -5.08703896      -2.21197584
H       -0.20313626      -3.14220351      -2.37030304
H       -3.84632578      -4.10449504      -4.01357230
H       -3.59503912      -0.66550001      -1.42167635
H       -7.70535146      -3.49722586      -4.60620708
H       -7.73761809      -1.94429405      -3.80078917
H       -9.00219388      -1.93266737      -1.77029076
H       -8.47554130      -7.37956008       0.22300038
H       -6.11331334      -7.86867199      -3.34742991
H       -6.52751712      -5.54298241      -3.96115507
C       -7.00667487      -9.14881729      -1.16921929
C       -6.79203245     -10.29832794      -0.87427876
Br      -6.44497381     -12.15698943      -0.39738488
C       -1.78858881       1.78858881       1.78858881
C       -1.42756003       3.09909232       2.06488699
N       -2.16588556       3.93238074       2.83653367
C       -3.31716469       3.42756071       3.34642083
C       -3.76084936       2.12833338       3.12266992
C       -2.97250927       1.29282212       2.32594509
C       -5.03496947       1.61686920       3.67292924
O       -5.43031120       0.47513797       3.50614406
O       -5.69167508       2.60091484       4.33093612
C       -7.02029749       2.27798949       4.77076971
C       -8.00484502       2.49976571       3.65072409
C       -8.74095016       1.48402602       3.17390834
C       -9.70237101       1.62010056       2.07006152
O      -10.37080837       0.66435019       1.69848502
O       -9.80356896       2.86987325       1.48462602
C       -9.05306584       3.96186742       1.96138464
C       -9.24654602       5.17488135       1.29858209
C       -8.54136641       6.29287585       1.72637642
C       -7.66409026       6.20007700       2.80501708
C       -7.48444527       4.97434104       3.45900079
C       -8.17205996       3.82761393       3.03853071
H       -0.51498704       3.53425023       1.66640554
H       -3.87834235       4.13307048       3.95298030
H       -3.28684350       0.27137165       2.12400033
H       -7.25809038       2.93685656       5.61383747
H       -7.05592585       1.25645130       5.17032415
H       -8.65586983       0.47767605       3.57160613
H       -9.93723451       5.23260143       0.46226506
H       -7.11156079       7.07327371       3.14458074
H       -6.79110990       4.94498482       4.29555988
C       -8.71727513       7.55383805       1.05359827
C       -8.86459869       8.60989390       0.49014657
Br      -9.10280842      10.31744688      -0.42090718
C        1.78858881      -1.78858881       1.78858881
C        3.13318424      -1.96274300       1.49561210
N        3.96822631      -2.72859766       2.23797600
C        3.42899774      -3.33972354       3.32242496
C        2.09403908      -3.22248947       3.69532410
C        1.25817500      -2.42861069       2.90449078
C        1.54342504      -3.88202586       4.89931700
O        0.37186304      -3.80907718       5.23065301
O        2.52630925      -4.52049903       5.57671777
C        2.15325842      -5.06223999       6.85355827
C        2.24437735      -3.99569876       7.91525871
C        1.15832414      -3.62800582       8.61255456
C        1.16647476      -2.58124709       9.64481124
O        0.15089830      -2.31052040      10.27222488
O        2.36830914      -1.92989824       9.85986084
C        3.53118238      -2.29207132       9.15306421
C        4.68598257      -1.57169860       9.46232828
C        5.86894613      -1.88641851       8.80525404
C        5.89728718      -2.91082486       7.86107229
C        4.72842828      -3.62404920       7.56530962
C        3.51835400      -3.31722521       8.20262539
H        3.59584420      -1.48190357       0.63789505
H        4.13683889      -3.93749982       3.89005441
H        0.20903827      -2.30831953       3.16485768
H        2.84893560      -5.87788663       7.08196217
H        1.15883236      -5.52348087       6.80038808
H        0.18611211      -4.07883089       8.44020901
H        4.64920539      -0.77894699      10.20394861
H        6.82167727      -3.16194087       7.34579711
H        4.79363479      -4.41518181       6.82283799
C        7.07192763      -1.15213249       9.10065134
C        8.07942463      -0.53716795       9.34804657
Br       9.70846207       0.45717770       9.74806375
C       -0.00445707       0.01189536      -1.78238275
H       -0.66409135       0.67374010      -2.43557963
H        0.65740317      -0.63156657      -2.45157240
C       -0.90989263      -0.90692880      -0.91072765
C        0.90977584       0.90977584      -0.90977584
C       -0.00465871       1.77757030       0.00794375
H       -0.66225468       2.44313916      -0.64384735
H        0.64322798       2.43503045       0.67728295
C       -1.78241447       0.00034974      -0.00472694
H       -2.45427497      -0.65498947       0.64260836
H       -2.43311707       0.67328779      -0.65473579
C       -0.91132561       0.90220522       0.91563759
C       -0.01476271      -0.02253852       1.78660255
H       -0.67934791      -0.69751639       2.42135241
H        0.63392994       0.61504881       2.47327442
C        0.01484550      -1.77751727      -0.01636693
H        0.67870853      -2.42144646      -0.68295456
H       -0.62264859      -2.45592969       0.64226336
C        1.78714474       0.01002794       0.00389507
H        2.44202412       0.67113390       0.66197326
H        2.45385902      -0.65136977      -0.64189061
C        0.91606151      -0.90478549       0.90901405
