125
Properties=species:S:1:pos:R:3 pbc="F F F"
C        0.00000000       0.00000000       0.00000000
C        0.87868478       0.87868478      -0.87868478
C        2.16157208       0.47819274      -1.22206244
N        2.99172336       1.21203532      -2.00132922
C        2.50885928       2.39468928      -2.45788560
C        1.23685591       2.87727667      -2.16800801
C        0.40733989       2.09750372      -1.35672080
C        0.73150542       4.16013318      -2.70341723
O       -0.37182883       4.61034377      -2.44336622
O        1.64304394       4.71322691      -3.53754312
C        1.20665165       5.87970629      -4.25298668
C        0.45565588       5.47417327      -5.49579360
C       -0.82721132       5.82855612      -5.66782765
C       -1.62854840       5.45042599      -6.84094342
O       -2.78604217       5.83057421      -6.95939948
O       -1.00870203       4.65146610      -7.78559208
C        0.33793504       4.26484490      -7.64382590
C        0.85771794       3.46770550      -8.66487394
C        2.18345287       3.05938470      -8.58806904
Br       2.91445344       1.97082130      -9.94805254
C        2.97779879       3.44982874      -7.51184473
C        2.43892633       4.25170421      -6.49744448
C        1.10047830       4.66535180      -6.54266242
H        2.57458547      -0.46602454      -0.87736981
H        3.20674208       2.94496807      -3.08297090
H       -0.59582638       2.43796588      -1.11036390
H        2.10017139       6.45281530      -4.52608564
H        0.61927572       6.53574780      -3.59796571
H       -1.36522469       6.41272368      -4.92794094
H        0.22742369       3.17522901      -9.49973623
H        4.01676568       3.13418305      -7.44875444
H        3.09221796       4.53386517      -5.67585939
C       -0.87868478      -0.87868478      -0.87868478
C       -1.05407708      -2.22292629      -0.58482389
N       -1.82370406      -3.05689001      -1.32449384
C       -2.44636310      -2.51436456      -2.40070650
C       -2.33154793      -1.17871445      -2.77187821
C       -1.52532140      -0.34638009      -1.98986291
C       -3.04496931      -0.61269685      -3.93738968
O       -2.94018870       0.54976568      -4.29145814
O       -3.84208057      -1.55023278      -4.50150062
C       -4.71486349      -1.08255032      -5.54193080
C       -5.97385776      -0.50889183      -4.94287316
C       -6.30377943       0.77658144      -5.14197446
C       -7.50147773       1.41003116      -4.57137444
O       -7.76913399       2.57950972      -4.81430724
O       -8.29320491       0.62071439      -3.75586562
C       -7.98376651      -0.73414566      -3.52869366
C       -8.86084576      -1.43229834      -2.69715328
C       -8.61541271      -2.77538719      -2.44010670
Br      -9.77712336      -3.74612997      -1.31007394
C       -7.51558696      -3.41096108      -3.01292422
C       -6.64740676      -2.69416237      -3.84650589
C       -6.86334693      -1.33465076      -4.11049484
H       -0.57394791      -2.68538322       0.27340038
H       -3.05662163      -3.21863755      -2.95942188
H       -1.41297570       0.70502793      -2.24455564
H       -4.96047227      -1.94117848      -6.17742158
H       -4.19165689      -0.36953835      -6.19179400
H       -5.68428471       1.44283193      -5.73398716
H       -9.71645683      -0.92432032      -2.26161177
H       -7.32083262      -4.46280763      -2.81606291
H       -5.80165849      -3.22728754      -4.27299649
C       -0.87868478       0.87868478       0.87868478
C       -0.33337307       1.59339581       1.93505839
N       -1.05962491       2.39376605       2.75169695
C       -2.38795610       2.48244276       2.49103529
C       -3.02218552       1.80538203       1.45457304
C       -2.24438164       0.98359134       0.63359142
C       -4.46923866       1.94423015       1.18158702
O       -5.04734030       1.34265547       0.29188539
O       -5.02121585       2.85138809       2.02121003
C       -6.38793262       3.20059441       1.75081758
C       -6.44857125       4.27854678       0.69850472
C       -7.07494387       4.06278692      -0.46855834
C       -7.15446941       5.05698689      -1.54863529
O       -7.76814345       4.81569343      -2.57990537
O       -6.50405901       6.25964287      -1.33534573
C       -5.84205496       6.52586042      -0.12130955
C       -5.23121391       7.77655437      -0.01747089
C       -4.56835756       8.10366079       1.15888825
Br      -3.72178480       9.78407199       1.32747048
C       -4.52537051       7.19751078       2.21659097
C       -5.14601204       5.94759666       2.09446632
C       -5.80873334       5.58634849       0.91341070
H        0.72765963       1.54810302       2.16548736
H       -2.92785866       3.13961611       3.16720627
H       -2.70211147       0.44050556      -0.19011362
H       -6.82646089       3.56610865       2.68650280
H       -6.96637696       2.30877868       1.47783361
H       -7.55495307       3.11612527      -0.69563840
H       -5.27717378       8.47405977      -0.84884462
H       -4.00933080       7.45026457       3.14010780
H       -5.08902081       5.27028017       2.94264154
C        0.87868478      -0.87868478       0.87868478
C        1.69081845      -1.85329087       0.31771794
N        2.49667489      -2.66513434       1.04327868
C        2.48866104      -2.48496920       2.38780392
C        1.70996874      -1.53361615       3.03855569
C        0.88559030      -0.71544001       2.26053409
C        1.74402255      -1.34574402       4.50528927
O        1.05326467      -0.53247383       5.09614266
O        2.66818083      -2.16294821       5.06268494
C        2.91676992      -1.95990766       6.46266703
C        3.91974673      -0.85083181       6.65504420
C        3.59271356       0.25880159       7.33526048
C        4.50935405       1.38930326       7.54277024
O        4.16631794       2.36294464       8.20055822
O        5.76003080       1.29052821       6.95885356
C        6.14246492       0.13940514       6.24354606
C        7.43163200       0.15001599       5.70868136
C        7.87236624      -0.95986691       4.99867344
Br       9.60787676      -0.97291394       4.25253657
C        7.03981598      -2.06513002       4.83452626
C        5.74967007      -2.05810418       5.38030077
C        5.27463363      -0.94558291       6.08827599
H        1.72407982      -2.01780359      -0.75595267
H        3.15408420      -3.15357928       2.92701757
H        0.26453317       0.04328287       2.73125310
H        3.31430884      -2.89806192       6.86670157
H        1.97624464      -1.77842083       6.99832376
H        2.60639088       0.39755521       7.76660426
H        8.07061303       1.01711113       5.84888703
H        7.38152970      -2.93697893       4.28119454
H        5.13253503      -2.94002041       5.22938709
