194
Properties=species:S:1:pos:R:3 pbc="F F F"
C        4.07633972       1.63794186     -11.62781553
O        4.81085946       2.17517677     -10.52645780
C        4.58781290       3.50137453     -10.30855267
O        3.84620550       4.20774496     -10.97683804
C        5.40921745       3.97470060      -9.13538966
C        4.76227434       5.19985354      -8.49041710
C        5.54597792       5.68864345      -7.28161208
C        5.25311651       5.32550215      -6.01609869
C        4.21906566       4.38677000      -5.60150824
C        4.25960549       4.26233313      -4.26549397
N        5.24408314       5.06790682      -3.75588665
C        5.91880197       5.77589448      -4.73726649
O        6.82879721       6.55997001      -4.56520534
C        3.40962835       3.41809452      -3.41812597
C        2.90168670       2.19830699      -3.89510475
C        2.09474769       1.38912351      -3.08845907
C        1.79132716       1.79132716      -1.79132716
C        2.28744863       2.99313189      -1.29444404
C        3.09235124       3.80143734      -2.10513163
C        6.64615320       6.62452017      -7.61189470
C        6.37453175       7.84236806      -8.25329193
C        7.41294167       8.70131943      -8.62435778
C        8.73129162       8.35070657      -8.34579022
Br      10.13678885       9.51124221      -8.84635871
C        9.02035749       7.14952499      -7.70337927
C        7.98058822       6.28600483      -7.34544284
H        4.26610299       0.56196751     -11.66935016
H        4.41620299       2.08838638     -12.56539468
H        3.00136481       1.79306263     -11.48979309
H        6.41846501       4.20024555      -9.49650208
H        5.47348902       3.16418097      -8.39967221
H        3.72713137       4.96533894      -8.21306081
H        4.66016819       5.99865280      -9.23544699
H        3.53807544       3.87792684      -6.26323032
H        5.49313716       5.14640890      -2.78219983
H        3.13617200       1.85323590      -4.89955093
H        1.71337290       0.45038478      -3.48199966
H        2.05232808       3.31365897      -0.28262619
H        3.45182729       4.74415075      -1.69842794
H        5.35003694       8.13632122      -8.47073744
H        7.18098548       9.63695653      -9.12585816
H       10.04598847       6.87631208      -7.47140510
H        8.22345291       5.35319101      -6.84176099
C       -6.73530171     -10.44582658      -0.16096882
O       -6.24061261      -9.89088932      -1.38099210
C       -7.16332412      -9.16366011      -2.07075587
O       -8.32198464      -8.98721897      -1.72158489
C       -6.55062197      -8.62800086      -3.34068487
C       -7.28570075      -7.36867781      -3.79816642
C       -6.67572738      -6.77940430      -5.06110176
C       -5.75688534      -5.79215822      -5.04567378
C       -5.15879996      -5.18376795      -3.86477599
C       -4.26509328      -4.26305448      -4.25928482
N       -4.23567492      -4.20415457      -5.62804711
C       -5.11595034      -5.09415830      -6.22185430
O       -5.29434518      -5.24731563      -7.41231174
C       -3.42088901      -3.41312026      -3.41183956
C       -2.96927364      -3.86506031      -2.16076449
C       -2.16085225      -3.05907359      -1.35240442
C       -1.79132716      -1.79132716      -1.79132716
C       -2.22180485      -1.32362468      -3.02959503
C       -3.03263218      -2.13167856      -3.83460947
C       -7.20025967      -7.36557763      -6.31673076
C       -8.56621282      -7.27902347      -6.62495545
C       -9.07833067      -7.88404205      -7.77624616
C       -8.22301615      -8.57173403      -8.63303824
Br      -8.91366350      -9.39007489     -10.19065138
C       -6.86303791      -8.66237301      -8.34785084
C       -6.35574594      -8.06773433      -7.18855562
H       -5.90395928     -10.94127355       0.34781217
H       -7.50955264     -11.19030729      -0.37012412
H       -7.12071507      -9.65861743       0.49511197
H       -6.59922557      -9.41614855      -4.09983852
H       -5.49742549      -8.38903173      -3.15088498
H       -7.28841188      -6.62996402      -2.98715522
H       -8.34815469      -7.59602555      -3.95008773
H       -5.39736879      -5.43671824      -2.84514556
H       -3.63716384      -3.60723605      -6.17734600
H       -3.23077452      -4.85749725      -1.80068705
H       -1.82578678      -3.43202830      -0.38794227
H       -1.93805719      -0.33342305      -3.37713300
H       -3.37003968      -1.73478500      -4.78958130
H       -9.24730481      -6.73828411      -5.97150668
H      -10.14054033      -7.81024660      -7.99301324
H       -6.18829536      -9.18626625      -9.01914404
H       -5.29075431      -8.14543414      -6.98221647
C       -3.32441738       2.25457495      11.76310478
O       -4.17873454       2.64657609      10.68718341
C       -4.07885296       3.96400909      10.35487805
O       -3.34863216       4.77423642      10.90791992
C       -5.01974483       4.28033966       9.21922322
C       -4.52194662       5.49456303       8.43603534
C       -5.42922515       5.82620678       7.26080151
C       -5.20256331       5.38591751       6.00623653
C       -4.13038326       4.49601977       5.58094087
C       -4.25938830       4.26278655       4.26525774
N       -5.33989700       4.95027387       3.77770573
C       -5.99463024       5.68251920       4.75481349
O       -6.97446460       6.38105181       4.59845614
C       -3.40967616       3.41872202       3.41745064
C       -2.77225861       2.28169262       3.94114721
C       -1.96511896       1.47254582       3.13466548
C       -1.79132716       1.79132716       1.79132716
C       -2.41702989       2.90976559       1.24822908
C       -3.22177680       3.71851221       2.05863120
C       -6.57313418       6.70166137       7.60777251
C       -6.35288879       7.98349720       8.13380575
C       -7.42625309       8.79029396       8.52207182
C       -8.72940070       8.32221861       8.37616910
Br     -10.18216797       9.41204135       8.90018045
C       -8.96839111       7.05558175       7.84928890
C       -7.89234191       6.24539061       7.47430337
H       -3.42418704       1.17427591      11.89895770
H       -3.62897382       2.75202947      12.68898076
H       -2.27836790       2.47712830      11.52872433
H       -6.01434325       4.45884020       9.64202919
H       -5.07331370       3.41120547       8.55282304
H       -3.49470774       5.31573676       8.09508662
H       -4.42914511       6.35558195       9.10954092
H       -3.36399793       4.09323177       6.22200289
H       -5.66561669       4.93227846       2.82385073
H       -2.90368638       2.00145426       4.98381817
H       -1.48209063       0.59890350       3.56476321
H       -2.28355757       3.16506433       0.19999134
H       -3.68432478       4.59667261       1.61340859
H       -5.34184996       8.36868098       8.24656467
H       -7.23326074       9.77750600       8.93303343
H       -9.98328585       6.68977294       7.72064686
H       -8.09656435       5.26000588       7.06183468
C        6.74001472     -10.44281225       0.15927014
O        6.24451237      -9.88866099       1.37932067
C        7.16657431      -9.16132536       2.06984044
O        8.32531368      -8.98419333       1.72128148
C        6.55304490      -8.62652905       3.33973375
C        7.28733667      -7.36707918       3.79812914
C        6.67651468      -6.77866417       5.06105460
C        5.75722737      -5.79183221       5.04565777
C        5.15940429      -5.18317478       3.86476482
C        4.26509501      -4.26305182       4.25928576
N        4.23502253      -4.20479281       5.62806126
C        5.11543365      -5.09466523       6.22186405
O        5.29335323      -5.24828648       7.41233285
C        3.42088960      -3.41311611       3.41184312
C        2.97005469      -3.86468952       2.16035423
C        2.16163439      -3.05870283       1.35199305
C        1.79132716      -1.79132716       1.79132716
C        2.22102303      -1.32399515       3.03000638
C        3.03185176      -2.13204636       3.83502209
C        7.20074026      -7.36517260       6.31665520
C        8.56651223      -7.27813390       6.62554561
C        9.07837980      -7.88344545       7.77679363
C        8.22298814      -8.57192190       8.63287838
Br       8.91329679      -9.39066014      10.19043284
C        6.86318239      -8.66305325       8.34702612
C        6.35614912      -8.06811571       7.18777106
H        5.90913267     -10.93840679      -0.35011881
H        7.51451091     -11.18703394       0.36843921
H        7.12536775      -9.65512594      -0.49627316
H        6.60166194      -9.41500229       4.09854842
H        5.49982607      -8.38795551       3.14956062
H        7.29008077      -6.62799254       2.98745781
H        8.34982500      -7.59400972       3.95043326
H        5.39855618      -5.43554834       2.84512807
H        3.63598628      -3.60840043       6.17735917
H        3.23217541      -4.85684138       1.79994203
H        1.82718183      -3.43136888       0.38720664
H        1.93666231      -0.33408303       3.37786789
H        3.36863971      -1.73543604       4.79033023
H        9.24765560      -6.73678308       5.97265693
H       10.14045610      -7.80926270       7.99408136
H        6.18837256      -9.18756323       9.01776986
H        5.29128786      -8.14620887       6.98090819
C       -0.00445707       0.01189536      -1.78238275
H       -0.66409135       0.67374010      -2.43557963
H        0.65740317      -0.63156657      -2.45157240
C       -0.90989263      -0.90692880      -0.91072765
C        0.90977584       0.90977584      -0.90977584
C       -0.00465871       1.77757030       0.00794375
H       -0.66225468       2.44313916      -0.64384735
H        0.64322798       2.43503045       0.67728295
C       -1.78241447       0.00034974      -0.00472694
H       -2.45427497      -0.65498947       0.64260836
H       -2.43311707       0.67328779      -0.65473579
C       -0.91132561       0.90220522       0.91563759
C       -0.01476271      -0.02253852       1.78660255
H       -0.67934791      -0.69751639       2.42135241
H        0.63392994       0.61504881       2.47327442
C        0.01484550      -1.77751727      -0.01636693
H        0.67870853      -2.42144646      -0.68295456
H       -0.62264859      -2.45592969       0.64226336
C        1.78714474       0.01002794       0.00389507
H        2.44202412       0.67113390       0.66197326
H        2.45385902      -0.65136977      -0.64189061
C        0.91606151      -0.90478549       0.90901405
