161
Properties=species:S:1:pos:R:3 pbc="F F F"
C        0.00000000       0.00000000       0.00000000
C        0.88213615       0.88213615      -0.88213615
C        0.33030325       1.99390447      -1.51488377
C        1.13488022       2.79413649      -2.32361775
C        2.48714633       2.48414075      -2.49023215
C        3.05304455       1.37655659      -1.84136509
C        4.46629271       1.01171867      -2.00736449
C        5.45322295       1.91761070      -2.08538316
C        6.87580716       1.48685683      -2.22001071
N        7.27423389       0.45668611      -1.53278924
C        8.62858656       0.12573565      -1.53739470
C        9.05187875      -0.98010267      -0.79438200
C       10.40405006      -1.32901809      -0.74277913
C       11.33980976      -0.56742031      -1.44031848
Br      13.16945419      -1.03599479      -1.37129523
C       10.93545884       0.53717793      -2.18447247
C        9.57670443       0.87766072      -2.22201210
C        9.10727355       2.03811423      -2.99971356
O        9.94869088       2.68375344      -3.62307399
N        7.72574856       2.28081041      -2.99017371
C        7.23589763       3.33931736      -3.82703381
C        7.80734813       4.61835986      -3.76069929
C        7.31380767       5.65997124      -4.54937796
C        6.25739928       5.43130430      -5.42755231
C        5.69752465       4.15883278      -5.52476991
C        6.18373777       3.11815089      -4.72918334
C        2.23266465       0.56710764      -1.04529928
H       -0.72035728       2.24114137      -1.38820517
H        0.70987085       3.65891033      -2.82732221
H        3.08884434       3.11653327      -3.13893055
H        4.69158338      -0.05273910      -2.03512935
H        5.26778795       2.98215389      -2.00249743
H        8.31921982      -1.56734100      -0.24520511
H       10.71290030      -2.18992745      -0.15538713
H       11.66274978       1.13252075      -2.73175572
H        8.63145772       4.82282479      -3.08094573
H        7.75991661       6.64884820      -4.47910831
H        5.88070164       6.24162039      -6.04720099
H        4.88980975       3.97380698      -6.22868710
H        5.75292717       2.12681323      -4.84978399
H        2.64862125      -0.30273618      -0.54135055
C       -0.88213615      -0.88213615      -0.88213615
C       -1.86057094      -1.68230866      -0.29621190
C       -2.66044376      -2.49052796      -1.10166275
C       -2.48387176      -2.48987388      -2.48777359
C       -1.51267163      -1.67283460      -3.08546000
C       -1.28850363      -1.65968613      -4.53718611
C       -2.28393991      -1.73863544      -5.43364147
C       -1.99863098      -1.68640430      -6.89763943
N       -1.08963274      -0.85613892      -7.31793757
C       -0.90836218      -0.69273356      -8.69062117
C        0.06736112       0.20334387      -9.13686306
C        0.26115693       0.42408927     -10.50305731
C       -0.52554225      -0.25714153     -11.43002416
Br      -0.26674650       0.04037563     -13.27838378
C       -1.50197758      -1.15236580     -11.00276586
C       -1.68809032      -1.35892763      -9.62935931
C       -2.70946726      -2.29973670      -9.13589738
O       -3.37847135      -2.90423360      -9.97281337
N       -2.80096589      -2.45135873      -7.74440806
C       -3.71350234      -3.44165247      -7.24709400
C       -5.04721792      -3.45871652      -7.68047285
C       -5.94734067      -4.39987433      -7.17594187
C       -5.52108770      -5.34699328      -6.24817491
C       -4.19211279      -5.36006448      -5.82895007
C       -3.29279047      -4.41288801      -6.32539352
C       -0.70073375      -0.87769243      -2.26664539
H       -2.00380372      -1.68625259       0.78106705
H       -3.42083842      -3.12392615      -0.65133883
H       -3.11135097      -3.14139297      -3.09156421
H       -0.25708532      -1.54995586      -4.86693245
H       -3.32513469      -1.78995390      -5.13735068
H        0.67405343       0.73873889      -8.40987625
H        1.02213646       1.12853015     -10.82902660
H       -2.11629159      -1.68728838     -11.72344629
H       -5.40502378      -2.72794519      -8.40225928
H       -6.98080496      -4.39386657      -7.51320159
H       -6.22152299      -6.08448987      -5.86351016
H       -3.85295558      -6.11524604      -5.12410221
H       -2.25363704      -4.46693056      -6.00895680
H        0.06563281      -0.24438704      -2.70848139
C       -0.88213615       0.88213615       0.88213615
C       -2.24877588       0.96557390       0.62474172
C       -3.05095154       1.77499543       1.42668749
C       -2.48556091       2.49068610       2.48527223
C       -1.11326112       2.39677681       2.76092829
C       -0.48279617       3.14794578       3.85463392
C       -1.06995526       3.34042960       5.04583195
C       -0.36667895       4.08374771       6.13224805
N        0.90697553       3.87528768       6.29539709
C        1.54999853       4.45179507       7.38992037
C        2.91798717       4.22167384       7.56247141
C        3.59679108       4.75159334       8.66300885
C        2.90297449       5.51840746       9.59727497
Br       3.81800356       6.23525743      11.08750077
C        1.54055203       5.75668711       9.44097416
C        0.87268199       5.21395011       8.33510913
C       -0.56862708       5.44455576       8.13191850
O       -1.15596847       6.14066492       8.95888493
N       -1.13769217       4.87650995       6.98253055
C       -2.51409240       5.17901257       6.70914383
C       -3.49071117       4.99666757       7.69902854
C       -4.83556559       5.25896476       7.42862652
C       -5.21779300       5.72521931       6.17324357
C       -4.25520885       5.93774339       5.18817510
C       -2.91058409       5.66637453       5.45411339
C       -0.31143559       1.59539840       1.93823758
H       -2.69478604       0.41035856      -0.19615534
H       -4.11703755       1.85175952       1.22730632
H       -3.13170439       3.12665857       3.08594519
H        0.51985038       3.52730182       3.66652219
H       -2.04260660       2.92595286       5.28387980
H        3.45418110       3.61624378       6.83502125
H        4.65969432       4.55697095       8.78108336
H        0.99639149       6.35640548      10.16701227
H       -3.21783956       4.63100899       8.68637970
H       -5.58269156       5.10250591       8.20267565
H       -6.26434882       5.93735257       5.96782163
H       -4.55000164       6.32598322       4.21631897
H       -2.17543420       5.87411563       4.67997456
H        0.75696093       1.51645956       2.12773700
C        0.88213615      -0.88213615       0.88213615
C        2.05629122      -0.36125576       1.42154452
C        2.86258675      -1.16884108       2.22120664
C        2.48851567      -2.48931690       2.48368666
C        1.29829590      -3.01421636       1.95845396
C        0.88296617      -4.40241356       2.19999614
C        1.05487152      -5.02518432       3.37616097
C        0.58186057      -6.42680314       3.57401100
N       -0.56062378      -6.76950668       3.05482634
C       -1.08333672      -8.02871850       3.34633513
C       -2.31304847      -8.39055223       2.78865432
C       -2.89106122      -9.62905940       3.07981292
C       -2.23406631     -10.51292153       3.93385272
Br      -3.01398452     -12.18809617       4.33064299
C       -1.00929660     -10.16819238       4.49821346
C       -0.44507826      -8.92044192       4.20101359
C        0.85082837      -8.51821463       4.77605833
O        1.42158620      -9.32248038       5.51145174
N        1.33944153      -7.25869866       4.39859249
C        2.64852994      -6.89317099       4.86054787
C        2.97376788      -6.99140176       6.22123765
C        4.23533440      -6.60698964       6.68083283
C        5.19284183      -6.13908873       5.78432533
C        4.89362692      -6.06208475       4.42541567
C        3.62861101      -6.43699699       3.96546401
C        0.50345202      -2.20108261       1.14053693
H        2.35203205       0.66534008       1.22229730
H        3.78458509      -0.77222301       2.63929529
H        3.14365098      -3.10229849       3.09835867
H        0.38914853      -4.91082110       1.37400399
H        1.49004286      -4.52749334       4.23490306
H       -2.82619246      -7.69465440       2.12862199
H       -3.85019943      -9.88917447       2.63938494
H       -0.49279723     -10.85636599       5.16345750
H        2.24248681      -7.35125118       6.94149025
H        4.46926248      -6.67853894       7.74007171
H        6.17744487      -5.84886165       6.14321649
H        5.64927107      -5.72107299       3.72195977
H        3.43249833      -6.40072859       2.89629747
H       -0.41833822      -2.59126656       0.71430728
