189
Properties=species:S:1:pos:R:3 pbc="F F F"
C        0.00000000       0.00000000       0.00000000
C        0.88353629       0.88353629      -0.88353629
C        0.48629891       2.20547463      -1.14661554
C        1.27807518       3.03072665      -1.94592880
C        2.43675651       2.48676304      -2.46672682
N        3.36163329       3.14595792      -3.26956780
C        4.40808654       2.31314361      -3.61890925
O        5.37753083       2.59318454      -4.29884844
C        4.08466279       0.98514992      -2.98255015
C        4.90916010      -0.04265194      -3.23221727
C        4.71746138      -1.44980571      -2.78672988
N        3.53436655      -1.97511313      -2.88019868
C        3.35526837      -3.31602174      -2.54169780
C        2.06929994      -3.85801905      -2.61100909
C        1.84458644      -5.19951541      -2.29104849
C        2.91400313      -6.00436000      -1.90208079
C        4.20020296      -5.47787272      -1.82170538
C        4.40867866      -4.12994425      -2.14071078
C        5.74549994      -3.52129095      -2.03376939
O        6.66021747      -4.22027521      -1.60044196
N        5.84610466      -2.17048642      -2.39441883
C        7.13166334      -1.55318754      -2.24997001
C        7.27654423      -0.49526455      -1.33489492
C        8.51312300       0.12318439      -1.14888675
C        9.62124717      -0.31301579      -1.86672379
C        9.49308811      -1.36175933      -2.77662703
C        8.25131299      -1.98440124      -2.99379451
C        8.19024093      -3.09102392      -4.01223495
C        2.83509405       1.16227783      -2.23250583
C        2.06651706       0.35489119      -1.41408050
H       -0.43829279       2.59516339      -0.72639041
H        0.98617234       4.05527486      -2.14826244
H        3.30748369       4.10777933      -3.56933816
H        5.77819994       0.11794368      -3.86757780
H        1.23768085      -3.22755955      -2.91731189
H        0.83655055      -5.60255654      -2.35014058
H        5.03587809      -6.10041265      -1.51049577
H        6.43303414      -0.16232369      -0.73479617
H        8.61442900       0.93576596      -0.43398096
H       10.58883982       0.15948649      -1.71686886
H       10.37292504      -1.69127711      -3.32660091
H        7.19880372      -3.16934756      -4.46829108
H        8.45473140      -4.04717410      -3.55108806
H        8.89178188      -2.89849943      -4.83188285
H        2.35521597      -0.66318659      -1.18606850
C        2.68507761      -7.38861238      -1.57798440
C        2.49335247      -8.54792374      -1.30655368
Br       2.18334915     -10.42243216      -0.86767316
C       -0.88353629      -0.88353629      -0.88353629
C       -0.64035170      -0.93135098      -2.26668640
C       -1.43034714      -1.73315267      -3.09123081
C       -2.45090821      -2.44695204      -2.49238611
N       -3.33401669      -3.30815765      -3.13498467
C       -4.23425903      -3.86180587      -2.24407450
O       -5.11972287      -4.65909453      -2.49074640
C       -3.88632477      -3.25969635      -0.90634174
C       -4.66758901      -3.56977489       0.13863847
C       -4.55840093      -3.00899185       1.51300724
N       -4.35421964      -1.73458289       1.64935042
C       -4.32873069      -1.18143725       2.92922351
C       -4.07038188       0.18518832       3.06290357
C       -4.04541629       0.78426524       4.32503154
C       -4.28335235       0.01136946       5.46025897
C       -4.53580549      -1.35275362       5.34452348
C       -4.55247252      -1.93978148       4.07280880
C       -4.77813619      -3.38550815       3.90566596
O       -4.89394110      -4.06853550       4.92209238
N       -4.79297432      -3.86600291       2.58894017
C       -4.96442830      -5.27834026       2.41432275
C       -3.92368420      -6.01998970       1.82749930
C       -4.04001785      -7.39934796       1.65417168
C       -5.19203360      -8.05585342       2.07293185
C       -6.23175542      -7.33382673       2.65762635
C       -6.14263402      -5.94034186       2.82226962
C       -7.31861264      -5.23019846       3.43735914
C       -2.72106492      -2.39184361      -1.11696918
C       -1.91761548      -1.62214705      -0.29572622
H        0.16685941      -0.34710493      -2.70301549
H       -1.24616862      -1.78495852      -4.15858251
H       -3.33828874      -3.52629295      -4.12001950
H       -5.50767167      -4.24559852      -0.01045122
H       -3.88762142       0.78556345       2.17462478
H       -3.84160746       1.84895402       4.40851885
H       -4.71358193      -1.96085399       6.22847471
H       -2.99830474      -5.53429052       1.52708864
H       -3.22624808      -7.96311670       1.20518886
H       -5.28210850      -9.13219159       1.94910492
H       -7.12419287      -7.86619338       2.98213740
H       -7.39443340      -4.19492936       3.09161552
H       -7.24299046      -5.24430552       4.52865062
H       -8.25631886      -5.71984252       3.15099607
H       -2.07592548      -1.57633306       0.77416065
C       -4.26409081       0.62843830       6.76120287
C       -4.24795926       1.14523346       7.85074339
Br      -4.22187593       1.98084752       9.61243826
C       -0.88353629       0.88353629       0.88353629
C       -0.63083956       0.94302266       2.26452686
C       -1.42067335       1.74507201       3.08898527
C       -2.45058385       2.44725030       2.49241221
N       -3.33525088       3.30672876       3.13517937
C       -4.24578177       3.84752380       2.24683383
O       -5.13516951       4.64022672       2.49416758
C       -3.90308284       3.23831477       0.91096525
C       -4.69399070       3.53529434      -0.13055961
C       -4.59058406       2.96544306      -1.50164157
N       -4.37822827       1.69157644      -1.63035261
C       -4.35789716       1.12944404      -2.90639678
C       -4.09069499      -0.23622886      -3.03217614
C       -4.07043055      -0.84416641      -4.29014463
C       -4.32200770      -0.08116540      -5.42911837
C       -4.58342455       1.28191824      -5.32130717
C       -4.59523587       1.87793544      -4.05372612
C       -4.83008425       3.32317904      -3.89528492
O       -4.95804314       3.99804126      -4.91570018
N       -4.83898011       3.81300510      -2.58194814
C       -5.01932832       5.22530156      -2.41618407
C       -3.97978022       5.97855507      -1.84216069
C       -4.10478315       7.35825813      -1.67784714
C       -5.26444506       8.00350163      -2.09299152
C       -6.30309675       7.26989245      -2.66503340
C       -6.20514120       5.87593177      -2.82036671
C       -7.38034495       5.15301472      -3.42190771
C       -2.73014373       2.38033370       1.11940028
C       -1.92706378       1.61050754       0.29791741
H        0.18364149       0.36770107       2.69920143
H       -1.22926144       1.80585907       4.15458914
H       -3.33406239       3.53190071       4.11863809
H       -5.53782296       4.20616102       0.01973743
H       -3.89729219      -0.82888625      -2.14097275
H       -3.85957712      -1.90794644      -4.36749610
H       -4.77186821       1.88236714      -6.20827414
H       -3.04881474       5.50164170      -1.54494982
H       -3.29190295       7.93103019      -1.23875723
H       -5.36136630       9.08003177      -1.97620290
H       -7.20162920       7.79353275      -2.98691311
H       -7.44625579       4.11974222      -3.06825078
H       -7.31261393       5.15981874      -4.51378730
H       -8.31947852       5.63800130      -3.13231452
H       -2.09266965       1.55587838      -0.77045014
C       -4.30759466      -0.70741358      -6.72573145
C       -4.29552375      -1.23189642      -7.81164491
Br      -4.27600610      -2.07994082      -9.56747513
C        0.88353629      -0.88353629       0.88353629
C        0.75194182      -2.28039299       0.80605428
C        1.54985766      -3.10591027       1.59896270
C        2.44252726      -2.49135668       2.45636242
N        3.32998456      -3.13448940       3.31268505
C        4.08156993      -2.22531973       4.03324974
O        4.94898059      -2.46977416       4.85080906
C        3.58967192      -0.86990392       3.59278702
C        4.10312744       0.20797118       4.20356917
C        3.68489891       1.62029933       3.98978597
N        2.41735702       1.88725489       3.90934998
C        2.00660895       3.21444929       3.78878477
C        0.64122047       3.48410682       3.66517634
C        0.18329808       4.79941480       3.55223622
C        1.09732401       5.85159823       3.56599815
C        2.46146559       5.59931426       3.68188430
C        2.90545806       4.27511128       3.78909841
C        4.34132533       3.95931936       3.87597240
O        5.13904820       4.89198592       3.79332194
N        4.67511690       2.60341657       3.99833674
C        6.07066043       2.27844447       4.03622985
C        6.61299385       1.49717190       3.00035265
C        7.96945411       1.17151976       2.98725978
C        8.80208310       1.62951014       4.00238221
C        8.27875856       2.40619334       5.03539059
C        6.91071972       2.72792580       5.07791233
C        6.41891633       3.54786867       6.24040431
C        2.56935902      -1.09833517       2.56218352
C        1.80113562      -0.28141902       1.75293410
H        0.03050850      -2.72725815       0.12549437
H        1.46344116      -4.18527005       1.54099844
H        3.43941816      -4.13244121       3.41274182
H        4.85571655       0.06962831       4.97763317
H       -0.06922854       2.66064392       3.65730564
H       -0.88296448       4.98883714       3.45593621
H        3.17846621       6.41703268       3.68452768
H        5.98915006       1.15972367       2.17608023
H        8.37865375       0.57231984       2.17784201
H        9.86170154       1.38659437       3.99008800
H        8.94725992       2.75821042       5.81919934
H        5.36924250       3.34036934       6.46887407
H        6.54146777       4.61481852       6.03199611
H        6.98480878       3.30717542       7.14753194
H        1.89060289       0.79692379       1.78441879
C        0.62652947       7.20800385       3.45592401
C        0.23223905       8.34399355       3.36373691
Br      -0.40529521      10.18079282       3.21467818
