181
Properties=species:S:1:pos:R:3 pbc="F F F"
C        0.00000000       0.00000000       0.00000000
C        0.88353629       0.88353629      -0.88353629
C        0.48629891       2.20547463      -1.14661554
C        1.27807518       3.03072665      -1.94592880
C        2.43675651       2.48676304      -2.46672682
N        3.36163329       3.14595792      -3.26956780
C        4.40808654       2.31314361      -3.61890925
O        5.37753083       2.59318454      -4.29884844
C        4.08466279       0.98514992      -2.98255015
C        4.90916010      -0.04265194      -3.23221727
C        4.71746138      -1.44980571      -2.78672988
N        3.53436655      -1.97511313      -2.88019868
C        3.35526837      -3.31602174      -2.54169780
C        2.06929994      -3.85801905      -2.61100909
C        1.84458644      -5.19951541      -2.29104849
C        2.91400313      -6.00436000      -1.90208079
Br       2.61361425      -7.82073244      -1.47681170
C        4.20020296      -5.47787272      -1.82170538
C        4.40867866      -4.12994425      -2.14071078
C        5.74549994      -3.52129095      -2.03376939
O        6.66021747      -4.22027521      -1.60044196
N        5.84610466      -2.17048642      -2.39441883
C        7.13166334      -1.55318754      -2.24997001
C        7.27654423      -0.49526455      -1.33489492
C        8.51312300       0.12318439      -1.14888675
C        9.62124717      -0.31301579      -1.86672379
C        9.49308811      -1.36175933      -2.77662703
C        8.25131299      -1.98440124      -2.99379451
C        8.19024093      -3.09102392      -4.01223495
C        2.83509405       1.16227783      -2.23250583
C        2.06651706       0.35489119      -1.41408050
H       -0.43829279       2.59516339      -0.72639041
H        0.98617234       4.05527486      -2.14826244
H        3.30748369       4.10777933      -3.56933816
H        5.77819994       0.11794368      -3.86757780
H        1.23768085      -3.22755955      -2.91731189
H        0.83655055      -5.60255654      -2.35014058
H        5.03587809      -6.10041265      -1.51049577
H        6.43303414      -0.16232369      -0.73479617
H        8.61442900       0.93576596      -0.43398096
H       10.58883982       0.15948649      -1.71686886
H       10.37292504      -1.69127711      -3.32660091
H        7.19880372      -3.16934756      -4.46829108
H        8.45473140      -4.04717410      -3.55108806
H        8.89178188      -2.89849943      -4.83188285
H        2.35521597      -0.66318659      -1.18606850
C       -0.88353629      -0.88353629      -0.88353629
C       -1.44596217      -0.34103151      -2.05139540
C       -2.25126282      -1.12899180      -2.87447600
C       -2.47511339      -2.43452835      -2.48060463
N       -3.23228884      -3.37814528      -3.16672489
C       -3.25367238      -4.58797585      -2.49849117
O       -3.81430743      -5.61108770      -2.84416868
C       -2.44022315      -4.36296593      -1.24917377
C       -2.36329356      -5.36933089      -0.36610098
C       -1.69982084      -5.31987159       0.96530687
N       -1.87731894      -4.27119816       1.70906499
C       -1.32797521      -4.24349785       2.99052864
C       -1.49496330      -3.09313281       3.76580613
C       -0.97060400      -3.02470822       5.05919271
C       -0.27728842      -4.11545640       5.58102091
Br       0.42557439      -4.02804184       7.33277393
C       -0.09665169      -5.26640885       4.81902492
C       -0.62380722      -5.31790023       3.52226226
C       -0.42475777      -6.50023704       2.66701644
O        0.26785407      -7.41617338       3.10793509
N       -1.00965359      -6.45435099       1.39396752
C       -0.78380379      -7.57864568       0.53400366
C       -0.06973777      -7.38460884      -0.66182800
C        0.18859007      -8.45349177      -1.52029244
C       -0.25430160      -9.72975456      -1.19089901
C       -0.96244846      -9.93762541      -0.00788194
C       -1.25103863      -8.87013619       0.86046857
C       -2.04329834      -9.17225200       2.10409837
C       -1.94004199      -2.98385234      -1.30598338
C       -1.11590008      -2.21207067      -0.50751799
H       -1.25459536       0.69469520      -2.32336086
H       -2.68315939      -0.72373604      -3.78281423
H       -3.71004390      -3.23141121      -4.04314607
H       -2.87415338      -6.30536366      -0.58420438
H       -2.03867478      -2.24492195       3.35616355
H       -1.11016873      -2.12045330       5.64648745
H        0.45098263      -6.11641073       5.21946689
H        0.31930428      -6.40300940      -0.92180150
H        0.74718973      -8.29254014      -2.43882551
H       -0.04586769     -10.56710864      -1.85221884
H       -1.29783554     -10.94463471       0.23422141
H       -2.62567090      -8.30718219       2.43510585
H       -1.37726190      -9.49223078       2.91084731
H       -2.76497148      -9.97500004       1.91480621
H       -0.66078999      -2.60844504       0.39113715
C       -0.88353629       0.88353629       0.88353629
C       -2.25523166       0.59655483       0.98660259
C       -3.07934688       1.38581209       1.78957166
C       -2.49246995       2.44940238       2.44837404
N       -3.13606420       3.33970992       3.30138489
C       -2.25863223       4.28729552       3.79421165
O       -2.50894008       5.19085469       4.56976904
C       -0.93041770       3.96338241       3.15856275
C        0.09692753       4.78889155       3.40676141
C        1.45494303       4.70607767       2.80325091
N        1.55599747       4.46307924       1.53237034
C        2.81701606       4.46100828       0.93695221
C        2.91421430       4.16066404      -0.42415975
C        4.15597215       4.15695974      -1.06486808
C        5.30732471       4.45855414      -0.33950551
Br       6.98655985       4.46204593      -1.20579256
C        5.22816954       4.75351683       1.01868834
C        3.97672127       4.74820338       1.64796308
C        3.84982899       5.01749698       3.09031038
O        4.88371905       5.19010128       3.73400199
N        2.54996263       5.00522851       3.61477119
C        2.41635351       5.21898562       5.02581371
C        1.89026900       4.18537287       5.82107072
C        1.75874219       4.34298753       7.20094880
C        2.15935242       5.52997497       7.80433262
C        2.68399376       6.56316686       7.02878270
C        2.80544923       6.43196393       5.63419155
C        3.35618727       7.60266908       4.86497016
C       -1.12966181       2.76282066       2.33739524
C       -0.30732361       1.96111271       1.56705242
H       -2.68278697      -0.24412888       0.44460292
H       -4.13748554       1.16834188       1.88388222
H       -4.11292312       3.31888173       3.55279634
H       -0.05837130       5.64619432       4.05915580
H        2.01334643       3.92823917      -0.98745955
H        4.21114790       3.91975400      -2.12447152
H        6.12514035       4.98108432       1.59001724
H        1.60577336       3.23451368       5.37676629
H        1.35670750       3.53456827       7.80631516
H        2.06815451       5.65264047       8.88070921
H        2.99523047       7.48351255       7.51996677
H        2.97403310       7.63159837       3.84018197
H        4.44929552       7.56367601       4.84426488
H        3.05428168       8.54658610       5.33286089
H        0.75442943       2.15303220       1.47949511
C        0.88353629      -0.88353629       0.88353629
C        1.61135496      -1.93175507       0.29527905
C        2.42673776      -2.74754254       1.08045033
C        2.46604369      -2.48716538       2.43703729
N        3.22343903      -3.17312658       3.38059340
C        3.03218202      -2.65871085       4.64924653
O        3.55836318      -3.02931131       5.68188933
C        2.02806403      -1.54731768       4.47698114
C        1.59675058      -0.92059587       5.58137899
C        0.54158767       0.12747471       5.64027259
N       -0.53808577      -0.03816847       4.93936941
C       -1.56910860       0.89486254       5.04491556
C       -2.70982501       0.72418465       4.25629965
C       -3.77196411       1.62855697       4.33664060
C       -3.69321175       2.70887665       5.21381232
Br      -5.13177872       3.92844270       5.32991494
C       -2.56088868       2.89663757       6.00156187
C       -1.50225204       1.98433288       5.90603010
C       -0.27014016       2.16434751       6.69246603
O       -0.17885021       3.17231790       7.39155232
N        0.71893056       1.18366694       6.53477344
C        1.94194080       1.37176626       7.25827127
C        3.13490063       1.55542160       6.53669557
C        4.34551660       1.75954836       7.19922589
C        4.37821190       1.79221767       8.58896094
C        3.20310572       1.61294431       9.31779439
C        1.97646088       1.38521790       8.66946328
C        0.75809147       1.17441713       9.52777763
C        1.72762497      -1.45963966       3.04261307
C        0.94481102      -0.63127884       2.25939889
H        1.54698808      -2.11185247      -0.77557954
H        2.99998211      -3.55363389       0.63609365
H        3.84575264      -3.94497832       3.19387023
H        1.98989956      -1.22384785       6.54997401
H       -2.76872767      -0.12137146       3.57478940
H       -4.65070845       1.47923657       3.71407961
H       -2.49206485       3.74300742       6.68103348
H        3.12785936       1.57177634       5.44942360
H        5.26025594       1.90678584       6.63070581
H        5.31799174       1.96148224       9.10868567
H        3.24851769       1.64528810      10.40501925
H        0.01389264       0.54582148       9.02967608
H        0.30579968       2.13578273       9.78862842
H        1.02635331       0.65714043      10.45595243
H        0.38305914       0.19023473       2.68527348
