181
Properties=species:S:1:pos:R:3 pbc="F F F"
C        0.00000000       0.00000000       0.00000000
C       -2.85532926       6.64830488      -0.63341644
C       -1.77745556       6.96736206       0.36039478
C       -2.10404570       7.18492278       1.70477684
C       -1.11461781       7.52110216       2.62480043
C        0.20938104       7.64233402       2.20707431
C        0.56492921       7.40132267       0.87148072
C       -0.43481194       7.04551144      -0.04490889
N        1.91881532       7.59618087       0.44769052
C        2.66148790       6.61069071      -0.20404580
C        2.06807654       5.24601236      -0.32136056
C        2.27136440       4.41091694      -1.35029503
C        3.01545454       4.66451124      -2.63978284
O        3.37196455       5.71767118      -3.12608943
N        3.12656705       3.41389184      -3.23523613
C        2.43486913       2.44365608      -2.51900344
C        2.27765593       1.11628705      -2.86414500
C        1.48677112       0.32651681      -2.02597925
C        0.88317432       0.88317432      -0.88317432
C        1.06542564       2.22745102      -0.54119048
C        1.85660046       3.00052703      -1.37302530
N        3.89332506       6.78172370      -0.57589959
C        4.48848527       8.03292723      -0.42058522
C        5.76895536       8.24470423      -0.93662025
C        6.40407961       9.48136602      -0.78571009
C        5.75412134      10.51482364      -0.11278062
Br       6.60972184      12.18582104       0.09915159
C        4.47636783      10.32268160       0.40127015
C        3.85398489       9.07777329       0.23846172
C        2.49370946       8.84279559       0.74122974
O        1.94968699       9.75923447       1.35427690
H       -3.82228367       7.04260825      -0.30156650
H       -2.94204094       5.56580633      -0.76199014
H       -2.63632540       7.11044137      -1.60175703
H       -3.13793495       7.12239948       2.03888782
H       -1.37530894       7.71549357       3.66218776
H        0.96328046       7.93452659       2.93538251
H       -0.18692946       6.89995728      -1.09441468
H        1.54023731       4.90401724       0.56253094
H        3.57719225       3.28200510      -4.12764054
H        2.73791828       0.69747271      -3.75214142
H        1.33451664      -0.72294023      -2.26976530
H        0.59276342       2.64718213       0.33973173
H        6.26864932       7.43715308      -1.46696988
H        7.39951368       9.62557754      -1.19746341
H        3.95903416      11.12768501       0.91838309
C       -4.39793968       4.07305904      -4.10151142
C       -3.38985042       3.71333801      -5.15299930
C       -2.45541412       4.66330299      -5.58398912
C       -1.54321403       4.34940496      -6.58787484
C       -1.55871031       3.08262231      -7.16855275
C       -2.46655334       2.10539985      -6.73361768
C       -3.36981558       2.42382436      -5.70961716
N       -2.51180675       0.83246870      -7.38796762
C       -2.39222099      -0.37876676      -6.70523666
C       -2.04534198      -0.33611248      -5.25399500
C       -2.47026902      -1.22123050      -4.34107685
C       -3.44963435      -2.35805378      -4.51206049
O       -4.23200214      -2.56803128      -5.41569174
N       -3.34853966      -3.09120333      -3.33595203
C       -2.50956578      -2.47053454      -2.41742833
C       -2.24239788      -2.88702311      -1.12866698
C       -1.41228808      -2.07430954      -0.35266956
C       -0.88317432      -0.88317432      -0.88317432
C       -1.15329634      -0.48417325      -2.19659755
C       -1.97040916      -1.29917751      -2.96056612
N       -2.41900840      -1.53254897      -7.29939099
C       -2.68183898      -1.59287546      -8.66728327
C       -2.83396459      -2.84106667      -9.27524858
C       -3.08209183      -2.94126976     -10.64779412
C       -3.17832391      -1.78415494     -11.41924675
Br      -3.50762210      -1.91372791     -13.27504128
C       -3.03599273      -0.53335535     -10.82843120
C       -2.79035463      -0.45170291      -9.45123891
C       -2.66237525       0.85067300      -8.78357306
O       -2.72445944       1.85700851      -9.48719363
H       -4.58368568       5.15286915      -4.09107454
H       -4.03932911       3.76805655      -3.11448298
H       -5.35719614       3.58505094      -4.30372780
H       -2.45127877       5.66559704      -5.15989498
H       -0.83677614       5.09755771      -6.93877843
H       -0.85710871       2.86649017      -7.97180599
H       -4.11242397       1.69533455      -5.39035309
H       -1.30280788       0.40846857      -4.98738430
H       -3.90552369      -3.91459399      -3.16672021
H       -2.66236058      -3.80116904      -0.72400279
H       -1.18485845      -2.36687498       0.67039172
H       -0.74335395       0.43744638      -2.59430625
H       -2.76498056      -3.74041806      -8.66737366
H       -3.19996518      -3.92245158     -11.10013787
H       -3.12014628       0.37404849     -11.42223829
C       -3.81643282      -4.05408535       4.66404458
C       -2.76898013      -3.55466718       5.61519876
C       -1.74299374      -4.40766162       6.04076813
C       -0.79087874      -3.96357996       6.95438514
C       -0.85773373      -2.66259931       7.44950632
C       -1.85944812      -1.78099451       7.01631756
C       -2.80367871      -2.23041666       6.08234634
N       -1.95147587      -0.47063744       7.58646724
C       -1.96363526       0.69434888       6.81824027
C       -1.71150032       0.57188683       5.35206231
C       -2.25770582       1.35989139       4.41497917
C       -3.30179367       2.43860433       4.57935063
O       -4.03550920       2.65989074       5.52032522
N       -3.33111167       3.09152549       3.35305787
C       -2.51289927       2.46418038       2.42044901
C       -2.36191898       2.80494277       1.09122623
C       -1.52945920       1.99598711       0.31382088
C       -0.88317432       0.88317432       0.88317432
C       -1.03670214       0.56137128       2.23599372
C       -1.85718569       1.37261413       3.00035298
N       -2.03281630       1.88307123       7.33506083
C       -2.20807509       2.02277466       8.71114797
C       -2.40778719       3.29813758       9.24435507
C       -2.57093368       3.47883346      10.62138858
C       -2.53349451       2.37555525      11.47267584
Br      -2.74750158       2.61439907      13.33449065
C       -2.34220944       1.09816451      10.95740534
C       -2.18316459       0.93543702       9.57469484
C       -2.00759412      -0.39969081       8.98737200
O       -1.95136167      -1.35545352       9.75873640
H       -3.92536436      -5.14184014       4.73836684
H       -3.54654287      -3.79681274       3.63602540
H       -4.79239483      -3.61757467       4.90105283
H       -1.69584302      -5.43504352       5.68477721
H       -0.01144050      -4.63650166       7.30305802
H       -0.12157484      -2.34401001       8.18485971
H       -3.61562537      -1.57721574       5.76903287
H       -0.93729499      -0.13891074       5.08333936
H       -3.95510693       3.86212211       3.16960884
H       -2.87157596       3.65823511       0.65772135
H       -1.39163489       2.22963469      -0.73992787
H       -0.53694852      -0.30051684       2.66378213
H       -2.44321792       4.15467311       8.57488125
H       -2.72791566       4.47967338      11.01496559
H       -2.32223701       0.23161139      11.61448768
C       -3.52506135      -6.06321516       1.88823824
C       -2.64169877      -6.64638704       0.82482344
C       -3.17502021      -6.97806241      -0.42694195
C       -2.37046593      -7.55688653      -1.40473669
C       -1.02597956      -7.80851175      -1.13789145
C       -0.46256631      -7.45885613       0.09848135
C       -1.27538036      -6.85974932       1.07123943
N        0.90320969      -7.78624990       0.37784608
C        1.84282806      -6.84126418       0.79213217
C        1.44121695      -5.40357397       0.79065854
C        1.88458345      -4.48609028       1.66190264
C        2.76356860      -4.68192766       2.87425236
O        3.05356753      -5.70746749       3.45469014
N        3.10676057      -3.39581558       3.27311888
C        2.44543941      -2.43330577       2.51878348
C        2.49957031      -1.06499210       2.69352556
C        1.70201152      -0.28093518       1.85632048
C        0.88317432      -0.88317432       0.88317432
C        0.85204125      -2.27118711       0.71083877
C        1.65103357      -3.03964225       1.53947697
N        3.08434293      -7.13465679       1.03194864
C        3.49617545      -8.46565678       0.98016549
C        4.80049383      -8.78834371       1.36144230
C        5.25398081     -10.11004299       1.30713190
C        4.39674868     -11.11756959       0.86740732
Br       5.00585300     -12.90408523       0.78645306
C        3.09299443     -10.81431781       0.49046705
C        2.65467672      -9.48483222       0.55378751
C        1.27656199      -9.12669495       0.19201837
O        0.54592750     -10.02658953      -0.21787247
H       -4.56922070      -6.35729799       1.73381378
H       -3.46127050      -4.97160180       1.87542424
H       -3.23190307      -6.43035482       2.87742125
H       -4.22989974      -6.81412838      -0.63865192
H       -2.79374670      -7.83768154      -2.36593798
H       -0.42108923      -8.28828275      -1.90476898
H       -0.86893480      -6.62371784       2.05265947
H        0.84160471      -5.10157639      -0.06145748
H        3.68910657      -3.22030423       4.07742709
H        3.12556650      -0.60931484       3.45265107
H        1.71330530       0.80123307       1.96926948
H        0.21472391      -2.72519296      -0.03970305
H        5.46291754      -7.99937512       1.71047962
H        6.27189506     -10.33954018       1.61111940
H        2.41537141     -11.59673776       0.15622690
