146
Properties=species:S:1:pos:R:3 pbc="F F F"
C        1.78629287       1.78629287      -1.78629287
C        1.59682007       3.15881353      -1.84693156
C        2.38355596       3.92053091      -2.71665878
C        3.32683260       3.27929912      -3.51363522
N        3.55472212       1.96016675      -3.41100803
C        2.78344598       1.23523127      -2.56555145
N        3.99755482       4.03774792      -4.47536890
C        4.79136620       3.63072529      -5.51678656
O        5.26782163       4.51847259      -6.22973525
C        5.09373691       2.16546510      -5.75400173
N        5.10273872       1.77791794      -7.16483511
C        6.24225381       1.55873992      -7.89641726
C        5.89533067       0.82860854      -9.00935341
C        4.49028876       0.61321423      -8.97020119
C        3.59055090      -0.09737625      -9.78994075
C        2.23380192      -0.11366055      -9.45347444
Br       1.02494998      -1.10154852     -10.52400651
C        1.75774356       0.57349570      -8.34066641
C        2.63529720       1.27672691      -7.50944029
C        4.00254225       1.26738307      -7.83538110
H        0.82913741       3.64021206      -1.24922773
H        2.21967313       4.99194864      -2.78512493
H        2.99405281       0.16842804      -2.55897473
H        3.85606281       5.03975754      -4.46675422
H        4.37648100       1.48240456      -5.31489469
H        6.07805547       1.93939769      -5.33154503
H        7.20715545       1.89752964      -7.54389871
H        6.58275327       0.46075420      -9.75876812
H        3.95770273      -0.63678876     -10.65668039
H        0.69798386       0.55868968      -8.09752390
H        2.26258398       1.79754626      -6.63270519
C       -1.78629287      -1.78629287      -1.78629287
C       -2.51178701      -1.25078650      -2.83999166
C       -3.35719954      -2.08228304      -3.58126306
C       -3.46286402      -3.42500418      -3.23189872
N       -2.71476071      -3.95828339      -2.25285281
C       -1.90184676      -3.13995584      -1.54242610
N       -4.41843219      -4.20114700      -3.89109245
C       -4.87962215      -5.45928356      -3.59997235
O       -5.74083166      -5.92154642      -4.35365140
C       -4.33022784      -6.25146469      -2.43151120
N       -5.34209625      -7.00888214      -1.69451338
C       -5.52526111      -8.36357256      -1.80857731
C       -6.23613120      -8.78730544      -0.70985598
C       -6.51871380      -7.64858449       0.09359411
C       -7.15362281      -7.46842764       1.33893505
C       -7.26116774      -6.17790326       1.86545520
Br      -8.07326125      -5.93169195       3.55754523
C       -6.77275582      -5.07314417       1.17399432
C       -6.13136291      -5.23158495      -0.05851654
C       -6.00030985      -6.53373920      -0.57125736
H       -2.45046578      -0.19285413      -3.07525728
H       -3.94603884      -1.66031445      -4.39039341
H       -1.35353181      -3.62785324      -0.74007053
H       -4.90443304      -3.78369048      -4.67445105
H       -3.86284401      -5.64955396      -1.66138229
H       -3.58310987      -6.95712236      -2.80876596
H       -5.09743476      -8.91848344      -2.63266560
H       -6.50009153      -9.81262622      -0.48955783
H       -7.53320929      -8.32706550       1.88268044
H       -6.87240089      -4.07459357       1.59279701
H       -5.73660279      -4.36921446      -0.58701817
C       -1.78629287       1.78629287       1.78629287
C       -3.16919943       1.69150060       1.74186513
C       -3.94019120       2.56278413       2.51777032
C       -3.30008036       3.51627970       3.30340688
N       -1.96167612       3.56848191       3.39573887
C       -1.22819367       2.71928940       2.63674563
N       -4.08916794       4.46631287       3.95519083
C       -3.72189631       5.62250452       4.59447722
O       -4.63089532       6.29269593       5.09243822
C       -2.26852705       6.03327601       4.71140068
N       -2.03735690       7.46785057       4.54028429
C       -1.78848579       8.33667582       5.57224938
C       -1.22088533       9.47142611       5.04098118
C       -1.14095252       9.30128578       3.63146588
C       -0.61492639      10.08408363       2.58410538
C       -0.69498136       9.60558810       1.27304635
Br       0.04792391      10.63006096      -0.13472908
C       -1.30056130       8.38585924       0.98548513
C       -1.82023003       7.59001034       2.01122404
C       -1.71265320       8.06173848       3.33091474
H       -3.65564469       0.96982520       1.09310731
H       -5.02357173       2.50795729       2.46521767
H       -0.15152506       2.83996089       2.72996963
H       -5.09333069       4.34444929       3.92479459
H       -1.61528371       5.58784127       3.97065527
H       -1.90278381       5.74427400       5.70194037
H       -1.99102873       8.05951704       6.59803803
H       -0.87107822      10.32337180       5.60782556
H       -0.13945263      11.03411749       2.80402423
H       -1.36316325       8.03177038      -0.04073620
H       -2.27676923       6.63130296       1.78476323
C        1.78629287      -1.78629287       1.78629287
C        1.70203741      -1.73103652       3.16949123
C        2.57327952      -2.50768162       3.93978450
C        3.51624363      -3.30500230       3.29852099
N        3.55788883      -3.40751996       1.96048812
C        2.70888946      -2.64767413       1.22766510
N        4.46727401      -3.95798150       4.08541613
C        5.61600907      -4.60845700       3.71441198
O        6.28922473      -5.10467777       4.62212697
C        6.01517551      -4.73905338       2.25897485
N        7.44922004      -4.58022736       2.01604437
C        8.30860121      -5.62037207       1.76843770
C        9.44299328      -5.10166569       1.18863366
C        9.28259858      -3.69155652       1.09954907
C       10.06914506      -2.65388367       0.56008668
C        9.60087128      -1.33877761       0.63396692
Br      10.63011953       0.05591817      -0.12679339
C        8.38778443      -1.03779344       1.24632779
C        7.58829910      -2.05379614       1.77936916
C        8.04953950      -3.37768508       1.67808184
H        0.98874404      -1.07342384       3.65640932
H        2.52683628      -2.44679014       5.02312027
H        2.82092537      -2.74967154       0.15085867
H        4.35305069      -3.91933084       5.09019303
H        5.57037059      -3.99984639       1.60356327
H        5.71623298      -5.73008611       1.90267910
H        8.02543713      -6.64257589       1.98057078
H       10.28815844      -5.67732974       0.83678741
H       11.01400727      -2.88428552       0.07930157
H        8.04169502      -0.00855571       1.30394671
H        6.63467203      -1.81692739       2.24123601
C       -0.00445707       0.01189536      -1.78238275
H       -0.66409135       0.67374010      -2.43557963
H        0.65740317      -0.63156657      -2.45157240
C       -0.90989263      -0.90692880      -0.91072765
C        0.90977584       0.90977584      -0.90977584
C       -0.00465871       1.77757030       0.00794375
H       -0.66225468       2.44313916      -0.64384735
H        0.64322798       2.43503045       0.67728295
C       -1.78241447       0.00034974      -0.00472694
H       -2.45427497      -0.65498947       0.64260836
H       -2.43311707       0.67328779      -0.65473579
C       -0.91132561       0.90220522       0.91563759
C       -0.01476271      -0.02253852       1.78660255
H       -0.67934791      -0.69751639       2.42135241
H        0.63392994       0.61504881       2.47327442
C        0.01484550      -1.77751727      -0.01636693
H        0.67870853      -2.42144646      -0.68295456
H       -0.62264859      -2.45592969       0.64226336
C        1.78714474       0.01002794       0.00389507
H        2.44202412       0.67113390       0.66197326
H        2.45385902      -0.65136977      -0.64189061
C        0.91606151      -0.90478549       0.90901405
