142
Properties=species:S:1:pos:R:3 pbc="F F F"
O       -0.89360093       6.91764076      -5.26637738
C        0.25162443       6.50027100      -5.41927826
C        0.50189817       5.08636743      -5.94864387
N        0.89422580       4.19404349      -4.87825425
C        2.20184970       4.07492183      -4.46975322
O        3.10795107       4.69945447      -5.01685998
C        2.39746370       3.18283198      -3.34803208
C        3.54260856       2.81287197      -2.66805666
C        3.14142521       1.90602574      -1.65641584
C        1.77710148       1.77710148      -1.77710148
O        1.31448248       2.54677999      -2.79777508
N        1.41928493       7.18126978      -5.13680765
C        1.56533468       8.49965990      -4.66205657
C        0.49983926       9.34266372      -4.34615184
C        0.74220186      10.64421008      -3.89052557
C        2.05177095      11.10335293      -3.75515622
Br       2.36714125      12.86644869      -3.15075197
C        3.12911980      10.27606190      -4.06268395
C        2.87607171       8.98123145      -4.51178254
O        3.91358229       8.14282991      -4.83169058
H        1.27115234       5.11301522      -6.72754705
H       -0.42278994       4.69992578      -6.38783022
H        0.17845303       3.76257208      -4.30280595
H        4.54290272       3.16215451      -2.88763997
H        3.77180774       1.40977234      -0.93167057
H        2.30417176       6.68664199      -5.27587282
H       -0.53232885       9.01772370      -4.43876044
H       -0.10107374      11.28719711      -3.64901280
H        4.14437140      10.64215746      -3.95591462
H        4.75419685       8.60756978      -4.68607740
O       -8.07980820      -3.33008005       0.11947104
C       -7.49227510      -3.85687847      -0.82202012
C       -6.24413128      -4.70957514      -0.58320305
N       -5.04388952      -3.98283283      -0.93980120
C       -4.55899526      -3.96112438      -2.22640510
O       -5.10606560      -4.58570346      -3.13249645
C       -3.38571015      -3.13478660      -2.40783101
C       -2.62661993      -2.86571023      -3.53120703
C       -1.58955752      -1.99128046      -3.12302880
C       -1.77710148      -1.77710148      -1.77710148
O       -2.86297615      -2.46363851      -1.33242289
N       -7.82390113      -3.75480879      -2.15865245
C       -8.91534351      -3.07605930      -2.73564835
C       -9.84607801      -2.32940471      -2.01317209
C      -10.90697025      -1.69715473      -2.67281252
C      -11.03847653      -1.81598976      -4.05581381
Br     -12.48153679      -0.96825068      -4.93455445
C      -10.11798399      -2.55461507      -4.79526659
C       -9.06391230      -3.17655988      -4.12861351
O       -8.14426212      -3.91878737      -4.82505331
H       -6.31490522      -5.63919757      -1.15761183
H       -6.18176752      -4.96268770       0.47948915
H       -4.63293123      -3.34161115      -0.26928868
H       -2.80961192      -3.26165238      -4.52143290
H       -0.80447481      -1.57196667      -3.73680918
H       -7.21287422      -4.21666474      -2.83714761
H       -9.77364340      -2.21492040      -0.93559149
H      -11.62295666      -1.11918179      -2.09299772
H      -10.22903523      -2.64295562      -5.87045264
H       -8.37391148      -3.90500929      -5.76892327
O       -6.28975050      -0.98698022       5.98764693
C       -6.23339872       0.21193542       5.72583955
C       -6.51467247       0.71431444       4.30792257
N       -5.28447069       1.05639318       3.62565968
C       -4.70021153       2.29484223       3.75147098
O       -5.21301615       3.18432751       4.42692185
C       -3.44466854       2.43640380       3.04725543
C       -2.57810145       3.50769370       2.93774205
C       -1.50421115       3.08166770       2.11798794
C       -1.77710148       1.77710148       1.77710148
O       -2.94955959       1.37438351       2.33509445
N       -5.90731272       1.22982316       6.60022649
C       -5.61534464       1.13638185       7.97532466
C       -5.56374867      -0.06215766       8.68706381
C       -5.27585284      -0.05617550      10.05726017
C       -5.04369321       1.15058369      10.71600320
Br      -4.66790102       1.14786046      12.56858043
C       -5.08785746       2.35753460      10.02247359
C       -5.37168609       2.33926330       8.65813630
O       -5.43143589       3.51034616       7.94632074
H       -7.18503984       1.57930202       4.34737275
H       -7.00663033      -0.07973887       3.73807460
H       -4.74785398       0.32498328       3.17099380
H       -2.71744361       4.47676571       3.39848789
H       -0.64067736       3.65742862       1.81514468
H       -5.85918195       2.18111263       6.22639198
H       -5.73830146      -1.02004164       8.20589547
H       -5.23983288      -1.00043242      10.59573571
H       -4.90756515       3.29152788      10.54335045
H       -5.24960899       4.25480388       8.54343116
O        2.48912990      -8.36674440       0.43454292
C        2.87787952      -7.82631420       1.46697996
C        1.87831699      -7.21017005       2.44842243
N        1.86381400      -5.76690884       2.33580071
C        2.75007031      -4.97221268       3.02424175
O        3.57976978      -5.44929496       3.79520077
C        2.62744593      -3.55881720       2.74206463
C        3.32603020      -2.46955656       3.22795043
C        2.77624967      -1.32172229       2.60589483
C        1.77710148      -1.77710148       1.77710148
O        1.67807215      -3.13101514       1.84995026
N        4.18933740      -7.67563790       1.87238707
C        5.35688250      -8.13711576       1.23305288
C        5.36906387      -8.80893183       0.01065911
C        6.57991255      -9.24095002      -0.54392507
C        7.77864051      -9.00399169       0.12764790
Br       9.40637723      -9.60240781      -0.62444313
C        7.78772228      -8.33242288       1.34772050
C        6.57690422      -7.90369861       1.88848285
O        6.54875887      -7.24690331       3.09244061
H        2.12805626      -7.51292336       3.47073500
H        0.87437600      -7.57671894       2.21387112
H        1.29904883      -5.32986322       1.61491901
H        4.13327927      -2.51220867       3.94720926
H        3.07389151      -0.29201090       2.74734825
H        4.36307767      -7.16291743       2.74069147
H        4.45462736      -9.00944471      -0.53991678
H        6.56989968      -9.76314575      -1.49790926
H        8.72470136      -8.15391460       1.86382752
H        7.45595332      -7.16231246       3.42957826
C       -0.00445707       0.01189536      -1.78238275
H       -0.66409135       0.67374010      -2.43557963
H        0.65740317      -0.63156657      -2.45157240
C       -0.90989263      -0.90692880      -0.91072765
C        0.90977584       0.90977584      -0.90977584
C       -0.00465871       1.77757030       0.00794375
H       -0.66225468       2.44313916      -0.64384735
H        0.64322798       2.43503045       0.67728295
C       -1.78241447       0.00034974      -0.00472694
H       -2.45427497      -0.65498947       0.64260836
H       -2.43311707       0.67328779      -0.65473579
C       -0.91132561       0.90220522       0.91563759
C       -0.01476271      -0.02253852       1.78660255
H       -0.67934791      -0.69751639       2.42135241
H        0.63392994       0.61504881       2.47327442
C        0.01484550      -1.77751727      -0.01636693
H        0.67870853      -2.42144646      -0.68295456
H       -0.62264859      -2.45592969       0.64226336
C        1.78714474       0.01002794       0.00389507
H        2.44202412       0.67113390       0.66197326
H        2.45385902      -0.65136977      -0.64189061
C        0.91606151      -0.90478549       0.90901405
