150
Properties=species:S:1:pos:R:3 pbc="F F F"
O       -0.89360093       6.91764076      -5.26637738
C        0.25162443       6.50027100      -5.41927826
C        0.50189817       5.08636743      -5.94864387
N        0.89422580       4.19404349      -4.87825425
C        2.20184970       4.07492183      -4.46975322
O        3.10795107       4.69945447      -5.01685998
C        2.39746370       3.18283198      -3.34803208
C        3.54260856       2.81287197      -2.66805666
C        3.14142521       1.90602574      -1.65641584
C        1.77710148       1.77710148      -1.77710148
O        1.31448248       2.54677999      -2.79777508
N        1.41928493       7.18126978      -5.13680765
C        1.56533468       8.49965990      -4.66205657
C        0.49983926       9.34266372      -4.34615184
C        0.74220186      10.64421008      -3.89052557
C        2.05177095      11.10335293      -3.75515622
C        3.12911980      10.27606190      -4.06268395
C        2.87607171       8.98123145      -4.51178254
O        3.91358229       8.14282991      -4.83169058
H        1.27115234       5.11301522      -6.72754705
H       -0.42278994       4.69992578      -6.38783022
H        0.17845303       3.76257208      -4.30280595
H        4.54290272       3.16215451      -2.88763997
H        3.77180774       1.40977234      -0.93167057
H        2.30417176       6.68664199      -5.27587282
H       -0.53232885       9.01772370      -4.43876044
H       -0.10107374      11.28719711      -3.64901280
H        4.14437140      10.64215746      -3.95591462
H        4.75419685       8.60756978      -4.68607740
C        2.29201376      12.44644412      -3.29473311
C        2.49321711      13.57128300      -2.90912876
Br       2.81854591      15.39005233      -2.28563914
O       -4.11136303       0.51621837      -7.69527255
C       -4.49040724      -0.52190684      -7.15885961
C       -5.23327571      -0.48214225      -5.82149152
N       -4.36204440      -0.87163338      -4.73284577
C       -4.17660547      -2.18817549      -4.38174379
O       -4.76814942      -3.09871311      -4.95740298
C       -3.22512410      -2.39177634      -3.31142732
C       -2.78208073      -3.54674930      -2.69470716
C       -1.84954263      -3.14902094      -1.70530322
C       -1.77710148      -1.77710148      -1.77710148
O       -2.60509204      -1.30664080      -2.74730472
N       -4.30172158      -1.80652075      -7.62912004
C       -3.68524878      -2.21276695      -8.82903541
C       -3.10260418      -1.33898985      -9.74706078
C       -2.52174159      -1.83449500     -10.92070091
C       -2.52796805      -3.20497138     -11.17734068
C       -3.10214132      -4.09385414     -10.27187020
C       -3.67409891      -3.58976417      -9.10522261
O       -4.25579958      -4.43630228      -8.19600094
H       -6.10980174      -1.13710650      -5.86480636
H       -5.57364744       0.54028627      -5.63160489
H       -3.74627436      -0.18064471      -4.31691200
H       -3.10339741      -4.55080426      -2.93849554
H       -1.30093897      -3.78644344      -1.02586826
H       -4.63776861      -2.57970011      -7.04921784
H       -3.07903243      -0.26629434      -9.57882851
H       -2.07213388      -1.13814934     -11.62485295
H       -3.10384634      -5.15810825     -10.48048889
H       -4.17988338      -5.34962317      -8.51833749
C       -1.93661166      -3.70535478     -12.39122455
C       -1.44135069      -4.12442589     -13.40785230
Br      -0.64055558      -4.80202842     -15.05165338
O       -8.47043564       0.83441320       1.98556838
C       -7.89371403       1.80230527       2.47515439
C       -7.15235043       2.80100920       1.58354985
N       -5.72117261       2.59367802       1.65167291
C       -4.94583328       3.17103585       2.62965562
O       -5.42805217       3.91876463       3.47744871
C       -3.54777918       2.80359198       2.57695660
C       -2.47925006       3.17134035       3.37294679
C       -1.33842091       2.50977117       2.85567471
C       -1.77710148       1.77710148       1.77710148
O       -3.11422807       1.94596209       1.59884740
N       -7.80567743       2.11415149       3.81753344
C       -8.38285489       1.43534925       4.90884701
C       -9.12895979       0.26202072       4.79767430
C       -9.67439476      -0.33704859       5.93959133
C       -9.47632171       0.24114356       7.19281483
C       -8.73202346       1.41085019       7.32499201
C       -8.19073323       1.99637272       6.18197974
O       -7.45967409       3.15333834       6.27509037
H       -7.40667197       3.82362810       1.88141454
H       -7.46516995       2.65448772       0.54530839
H       -5.29333625       1.88195047       1.06854434
H       -2.53058275       3.84006364       4.22205082
H       -0.32399357       2.56350838       3.22574871
H       -7.25247814       2.93385755       4.08035088
H       -9.30211545      -0.21584600       3.83788584
H      -10.25327649      -1.25166321       5.83352288
H       -8.58443232       1.85445006       8.30356111
H       -7.41479382       3.42682661       7.20622360
C      -10.04858441      -0.37642334       8.36102993
C      -10.52785443      -0.89363563       9.33941007
Br     -11.30279351      -1.72992414      10.92136802
O        5.67755733      -6.57473538      -0.96187550
C        5.46969262      -6.45822771       0.24325335
C        4.06418826      -6.65791772       0.81480350
N        3.44808142      -5.38674260       1.13169953
C        3.65045486      -4.75817941       2.33789048
O        4.34170021      -5.26250701       3.22005829
C        3.00491176      -3.46897873       2.45443728
C        2.97679358      -2.55539942       3.49134419
C        2.18424969      -1.46583631       3.05378079
C        1.77710148      -1.77710148       1.77710148
O        2.26893125      -2.98781169       1.40229461
N        6.39934773      -6.12836877       1.20964586
C        7.78000215      -5.89943507       1.04761393
C        8.44144605      -5.92737457      -0.18016581
C        9.82128458      -5.69822675      -0.24257383
C       10.53989056      -5.44519301       0.92519653
C        9.89728761      -5.41026777       2.16031028
C        8.52293980      -5.63610868       2.21003720
O        7.85991381      -5.61742945       3.41075954
H        4.11305051      -7.29338645       1.70527766
H        3.44130360      -7.15719500       0.06646746
H        2.98495704      -4.86159815       0.39727587
H        3.47239510      -2.67449533       4.44580678
H        1.94186345      -0.56731742       3.60406979
H        6.06874515      -6.02542252       2.17251890
H        7.91308573      -6.12029439      -1.10922484
H       10.31998499      -5.72390965      -1.20875847
H       10.46450208      -5.21429148       3.06364992
H        8.49520060      -5.43093425       4.12170919
C       11.96030683      -5.21974969       0.85313448
C       13.14990545      -5.03094092       0.79278250
Br      15.07338581      -4.72565310       0.69519847
C       -0.00445707       0.01189536      -1.78238275
H       -0.66409135       0.67374010      -2.43557963
H        0.65740317      -0.63156657      -2.45157240
C       -0.90989263      -0.90692880      -0.91072765
C        0.90977584       0.90977584      -0.90977584
C       -0.00465871       1.77757030       0.00794375
H       -0.66225468       2.44313916      -0.64384735
H        0.64322798       2.43503045       0.67728295
C       -1.78241447       0.00034974      -0.00472694
H       -2.45427497      -0.65498947       0.64260836
H       -2.43311707       0.67328779      -0.65473579
C       -0.91132561       0.90220522       0.91563759
C       -0.01476271      -0.02253852       1.78660255
H       -0.67934791      -0.69751639       2.42135241
H        0.63392994       0.61504881       2.47327442
C        0.01484550      -1.77751727      -0.01636693
H        0.67870853      -2.42144646      -0.68295456
H       -0.62264859      -2.45592969       0.64226336
C        1.78714474       0.01002794       0.00389507
H        2.44202412       0.67113390       0.66197326
H        2.45385902      -0.65136977      -0.64189061
C        0.91606151      -0.90478549       0.90901405
