129
Properties=species:S:1:pos:R:3 pbc="F F F"
C        0.00000000       0.00000000       0.00000000
O       -1.80350495       6.00773674      -4.35647335
C       -0.65827960       5.59036697      -4.50937424
C       -0.40800585       4.17646341      -5.03873985
N       -0.01567822       3.28413947      -3.96835023
C        1.29194567       3.16501781      -3.55984919
O        2.19804705       3.78955044      -4.10695595
C        1.48755968       2.27292796      -2.43812806
C        2.63270454       1.90296794      -1.75815264
C        2.23152118       0.99612171      -0.74651182
C        0.86719746       0.86719746      -0.86719746
O        0.40457846       1.63687597      -1.88787105
N        0.50938090       6.27136576      -4.22690363
C        0.65543065       7.58975587      -3.75215255
C       -0.41006477       8.43275969      -3.43624782
C       -0.16770217       9.73430605      -2.98062154
C        1.14186692      10.19344891      -2.84525219
C        2.21921578       9.36615788      -3.15277993
C        1.96616768       8.07132742      -3.60187851
O        3.00367827       7.23292589      -3.92178656
H        0.36124832       4.20311119      -5.81764303
H       -1.33269397       3.79002176      -5.47792620
H       -0.73145100       2.85266806      -3.39290193
H        3.63299870       2.25225049      -1.97773595
H        2.86190372       0.49986832      -0.02176655
H        1.39426774       5.77673796      -4.36596879
H       -1.44223288       8.10781968      -3.52885641
H       -1.01097776      10.37729308      -2.73910878
H        3.23446738       9.73225344      -3.04601059
H        3.84429282       7.69766576      -3.77617338
C        1.38210973      11.53654010      -2.38482909
C        1.58331309      12.66137898      -1.99922474
Br       1.90864189      14.48014830      -1.37573512
O       -3.61140712       1.58948399      -6.53878201
C       -3.91127092       0.50831619      -6.03850688
C       -4.58555366       0.44454251      -4.66618626
N       -3.64160316       0.04760401      -3.64281233
C       -3.37432206      -1.27325230      -3.36923832
O       -3.94947502      -2.18376386      -3.96131455
C       -2.36034065      -1.47975267      -2.35852237
C       -1.83035457      -2.63918978      -1.82428077
C       -0.86878389      -2.24289398      -0.86247685
C       -0.86719746      -0.86719746      -0.86719746
O       -1.76588852      -0.39305609      -1.77038087
N       -3.68447892      -0.74042091      -6.58275046
C       -3.11132324      -1.05540838      -7.83060746
C       -2.61993807      -0.10908989      -8.72991478
C       -2.07659590      -0.51622315      -9.95440637
C       -2.02906651      -1.87104415     -10.28045736
C       -2.51190865      -2.83138240      -9.39486253
C       -3.04714636      -2.41488729      -8.17733997
O       -3.53937195      -3.33355692      -7.28546185
H       -5.43012083      -0.25166165      -4.70022006
H       -4.96524323       1.43765533      -4.40766610
H       -3.03976540       0.74816103      -3.22251463
H       -2.11435498      -3.64531442      -2.10331574
H       -0.25555341      -2.88372397      -0.24426121
H       -3.95215735      -1.55722466      -6.02759249
H       -2.64016489       0.95390576      -8.50818408
H       -1.69826962       0.23583692     -10.64299140
H       -2.47235567      -3.88286329      -9.65751246
H       -3.43560068      -4.22494633      -7.65758495
C       -1.47708484      -2.28053968     -11.54585439
C       -1.01480020      -2.62349219     -12.60562441
Br      -0.26732503      -3.17801740     -14.31918289
O       -6.04234372      -1.79396531       4.31232673
C       -5.84450648      -0.58822432       4.18517946
C       -5.92522991       0.07405346       2.80791403
N       -4.60285647       0.34783504       2.28611997
C       -3.91965051       1.49996528       2.59719688
O       -4.41368633       2.37009432       3.31077279
C       -2.58901036       1.57468993       2.03491540
C       -1.61746998       2.55400509       2.12235005
C       -0.50859463       2.09713105       1.36842904
C       -0.86719746       0.86719746       0.86719746
O       -2.12507775       0.53915458       1.26509315
N       -5.51694944       0.30142094       5.18927991
C       -5.38209447       0.04687386       6.56837074
C       -5.52056424      -1.21283114       7.15120964
C       -5.37973463      -1.36806923       8.53556003
C       -5.10434998      -0.26097761       9.33719565
C       -4.95964458       1.00453058       8.77397842
C       -5.09823991       1.14661600       7.39451771
O       -4.97045301       2.38001232       6.80792539
H       -6.51039424       0.99726649       2.87434180
H       -6.42777215      -0.60558023       2.11306207
H       -4.09348322      -0.38941191       1.81004767
H       -1.71157615       3.48395816       2.66745083
H        0.43307359       2.60473197       1.21188020
H       -5.33904880       1.27361576       4.92430994
H       -5.73393256      -2.09661092       6.55712157
H       -5.49105791      -2.35790153       8.97226772
H       -4.74706861       1.86026747       9.40539533
H       -4.78249603       3.04070657       7.49492936
C       -4.97023382      -0.42793700      10.76118211
C       -4.85791153      -0.56776549      11.95377076
Br      -4.67629589      -0.79385633      13.88208575
O        5.12860703      -5.33075044      -1.89865233
C        4.85803804      -5.28466781      -0.70124423
C        3.43865955      -5.57937133      -0.21083347
N        2.74538273      -4.35640490       0.13502385
C        2.85842216      -3.78001040       1.37838011
O        3.53123281      -4.29432920       2.26899143
C        2.14441663      -2.53044634       1.52375272
C        2.02132442      -1.67222592       2.60027479
C        1.19703058      -0.60111883       2.17600531
C        0.86719746      -0.86719746       0.86719746
O        1.43622786      -2.03286472       0.46023289
N        5.72297435      -4.95965068       0.32502526
C        7.09660324      -4.65743032       0.24330552
C        7.81631961      -4.59242905      -0.94980593
C        9.18438083      -4.29501465      -0.93217005
C        9.83302499      -4.06675528       0.28078776
C        9.13140620      -4.12425713       1.48249026
C        7.76926101      -4.41747712       1.45263550
O        7.04971747      -4.49043913       2.61823412
H        3.47678076      -6.25551707       0.64970471
H        2.87785035      -6.06969922      -1.01229558
H        2.29207402      -3.81784474      -0.59579977
H        2.47625636      -1.81516103       3.57156774
H        0.88410206       0.25620456       2.75564109
H        5.34217198      -4.92082893       1.27397358
H        7.34309690      -4.76359491      -1.91224859
H        9.72917481      -4.24858880      -1.87233952
H        9.64446203      -3.94690644       2.42136294
H        7.64031678      -4.30968743       3.36812774
C       11.24221196      -3.77062201       0.29064496
C       12.42240605      -3.52261039       0.29890036
Br      14.33068007      -3.12159659       0.31224865
