125
Properties=species:S:1:pos:R:3 pbc="F F F"
C        0.00000000       0.00000000       0.00000000
C        5.17453946       3.48467542      -4.14366009
C        4.03540597       4.43490367      -4.47077193
N        2.72115047       3.81709137      -4.26338705
C        2.14978867       3.94672238      -2.91880427
C        1.88587396       2.63336510      -2.24827044
C        2.71088974       1.53167423      -2.10389823
C        2.12326141       0.50869097      -1.29860042
C        0.87170854       0.87170854      -0.87170854
S        0.40262044       2.40522864      -1.40490663
C        2.11902664       3.24283012      -5.39119579
O        2.71102814       3.18946437      -6.47393995
C        0.78764312       2.59994050      -5.36965349
C        0.68177769       1.36627842      -6.03780658
C       -0.56049460       0.74400281      -6.16596843
Br      -0.70202641      -0.88142721      -7.12443239
C       -1.70311924       1.32653802      -5.61715983
C       -1.59993809       2.56116854      -4.97746919
C       -0.36321799       3.20389728      -4.88559116
F       -0.34367546       4.44107961      -4.37231409
H        6.13624625       3.93755629      -4.40634355
H        5.07771150       2.54278219      -4.69413660
H        5.19614235       3.25073818      -3.07420178
H        4.13511172       4.75746459      -5.51269789
H        4.10579852       5.34611502      -3.86512888
H        1.26653734       4.58342246      -2.97304988
H        2.86376020       4.49089467      -2.28649495
H        3.70132482       1.46450913      -2.53459279
H        2.60530946      -0.42773868      -1.04756783
H        1.56466188       0.91951515      -6.49286076
H       -2.67079550       0.84373355      -5.71366682
H       -2.48495105       3.04223742      -4.57299874
C       -3.31637907      -4.52695188      -4.95954402
C       -4.52196444      -4.37040715      -4.04870999
N       -4.14173732      -3.97035568      -2.68953590
C       -4.04497993      -2.52787393      -2.44246145
C       -2.68472150      -2.08348826      -1.99929974
C       -1.44195216      -2.36564817      -2.53886187
C       -0.38742939      -1.65665894      -1.88646447
C       -0.87170854      -0.87170854      -0.87170854
S       -2.55055992      -0.96184069      -0.70035511
C       -3.99276239      -5.00469119      -1.75559897
O       -4.09327891      -6.18881635      -2.09233720
C       -3.63792698      -4.78171155      -0.33759858
C       -2.65256563      -5.63128255       0.19798549
C       -2.33677515      -5.56833449       1.55563300
Br      -1.05816949      -6.76134820       2.27853893
C       -2.97800514      -4.65156150       2.38898803
C       -3.97183172      -3.82815309       1.86128516
C       -4.31707142      -3.92016506       0.51096603
F       -5.36087579      -3.19560851       0.08676607
H       -3.62272820      -4.92481916      -5.93259873
H       -2.57714610      -5.20994041      -4.52754378
H       -2.82632322      -3.56303591      -5.13172318
H       -5.06559396      -5.32076279      -4.01891746
H       -5.22364479      -3.63454529      -4.45885235
H       -4.83558781      -2.23684445      -1.75057741
H       -4.26571885      -1.99730611      -3.37812486
H       -1.29053215      -3.03187874      -3.37801585
H        0.65764982      -1.72063434      -2.16215409
H       -2.16792606      -6.36842252      -0.44068921
H       -2.73302128      -4.59899521       3.44541161
H       -4.50192516      -3.13178175       2.50342179
C       -3.37690924       4.35186699       5.07409874
C       -4.48511149       4.41868570       4.03728439
N       -3.99971827       4.11529951       2.68661112
C       -4.01909812       2.70229527       2.29392194
C       -2.66895618       2.15757151       1.94098180
C       -1.47097355       2.24750903       2.62797962
C       -0.42640938       1.49513488       2.00900853
C       -0.87170854       0.87170854       0.87170854
S       -2.50463111       1.16144547       0.54667912
C       -3.64826669       5.21407464       1.89071121
O       -3.66787046       6.36311562       2.34344638
C       -3.16410576       5.09440449       0.49872685
C       -2.04717656       5.87966201       0.15902413
C       -1.59247212       5.91660540      -1.15960087
Br      -0.13116036       7.02793021      -1.61811180
C       -2.22584845       5.16209507      -2.14736490
C       -3.34771061       4.40441775      -1.81342871
C       -3.82787793       4.40016592      -0.50177339
F       -4.97810833       3.75592920      -0.26431930
H       -3.74719458       4.68305064       6.04990087
H       -2.53117245       4.98908436       4.79437348
H       -3.00600341       3.32787021       5.18720869
H       -4.92592343       5.42110372       4.05824706
H       -5.29652247       3.72721568       4.29330428
H       -4.75405398       2.56911529       1.49984041
H       -4.39208749       2.10947952       3.13958281
H       -1.34738734       2.80723286       3.54580655
H        0.58341527       1.41689545       2.39165843
H       -1.56507944       6.49281240       0.91914595
H       -1.87311684       5.18737733      -3.17388929
H       -3.87037069       3.83690640      -2.57699198
C        5.22543856      -3.59537795       3.98205846
C        4.04280149      -4.39110782       4.50717226
N        2.77670532      -3.66495355       4.35997002
C        2.06249808      -3.85909330       3.09372394
C        1.85387098      -2.59300469       2.32063382
C        2.75779938      -1.59859043       1.99007240
C        2.18814103      -0.59972106       1.14269071
C        0.87170854      -0.87170854       0.87170854
S        0.32006282      -2.29421243       1.59848046
C        2.34738387      -2.93134522       5.47432346
O        3.04848043      -2.83892401       6.48702802
C        1.08546599      -2.16152323       5.51024789
C        1.16177579      -0.86729557       6.05679134
C        0.00141050      -0.11316006       6.23490609
Br       0.10784565       1.59946132       7.03259444
C       -1.23966450      -0.62485300       5.85539012
C       -1.31583712      -1.91715047       5.33738630
C       -0.15917453      -2.68764714       5.19779784
F       -0.30561870      -3.96236888       4.81296805
H        6.16307652      -4.11732949       4.19974008
H        5.27194071      -2.60191109       4.44077849
H        5.15993923      -3.46417966       2.89696342
H        4.21752706      -4.62492482       5.56282234
H        3.96734195      -5.35657487       3.99312560
H        1.13450658      -4.39527730       3.29322579
H        2.65561082      -4.52866771       2.45687129
H        3.78875019      -1.59285185       2.31882470
H        2.72631955       0.25594561       0.75476467
H        2.12356510      -0.47238844       6.38108425
H       -2.14405255      -0.03962312       5.99103431
H       -2.27776221      -2.34117289       5.06687443
