154
Properties=species:S:1:pos:R:3 pbc="F F F"
C        6.08444348       4.39457945      -5.05356411
C        4.94531000       5.34480770      -5.38067596
N        3.63105450       4.72699540      -5.17329107
C        3.05969270       4.85662640      -3.82870829
C        2.79577799       3.54326912      -3.15817446
C        3.62079377       2.44157825      -3.01380226
C        3.03316544       1.41859499      -2.20850444
C        1.78161256       1.78161256      -1.78161256
S        1.31252447       3.31513267      -2.31481065
C        3.02893066       4.15273414      -6.30109982
O        3.62093217       4.09936839      -7.38384397
C        1.69754715       3.50984452      -6.27955751
C        1.59168172       2.27618245      -6.94771061
C        0.34940943       1.65390684      -7.07587246
C       -0.79321521       2.23644204      -6.52706386
C       -0.69003406       3.47107257      -5.88737322
C        0.54668604       4.11380131      -5.79549519
F        0.56622856       5.35098363      -5.28221812
H        7.04615027       4.84746032      -5.31624757
H        5.98761553       3.45268621      -5.60404062
H        6.10604638       4.16064221      -3.98410580
H        5.04501575       5.66736862      -6.42260192
H        5.01570255       6.25601904      -4.77503291
H        2.17644136       5.49332648      -3.88295391
H        3.77366423       5.40079870      -3.19639897
H        4.61122884       2.37441316      -3.44449682
H        3.51521349       0.48216534      -1.95747186
H        2.47456590       1.82941917      -7.40276479
H       -1.76089147       1.75363758      -6.62357084
H       -1.57504702       3.95214144      -5.48290276
C        0.24170535       0.41697329      -7.80525250
C        0.15150318      -0.61895855      -8.41610828
Br       0.00565391      -2.29397272      -9.40381042
C       -4.35264157      -5.12617741      -6.05376807
C       -5.36309456      -5.36315853      -4.94454056
N       -4.79235936      -5.12459834      -3.61438327
C       -4.88692887      -3.75209350      -3.10600502
C       -3.55773097      -3.12622628      -2.81326432
C       -2.41722223      -3.06426721      -3.59468484
C       -1.38552768      -2.27758879      -2.99714840
C       -1.78161256      -1.78161256      -1.78161256
S       -3.35524864      -2.22916059      -1.35805855
C       -4.29361776      -6.24807233      -2.94107453
O       -4.26287178      -7.35692788      -3.48434488
C       -3.70668640      -6.19531565      -1.58494714
C       -2.50890241      -6.90925216      -1.39742020
C       -1.94535748      -7.00895542      -0.12487582
C       -2.55067316      -6.38685686       0.96723933
C       -3.75077952      -5.70117287       0.78354068
C       -4.33655753      -5.63658841      -0.48283659
F       -5.54823378      -5.07332597      -0.57787056
H       -4.77591816      -5.41143688      -7.02250311
H       -3.44057316      -5.71083641      -5.89293280
H       -4.07151027      -4.06941254      -6.10987158
H       -5.72640741      -6.39403162      -5.01454725
H       -6.24323376      -4.72356334      -5.07995739
H       -5.56179872      -3.74100814      -2.24991490
H       -5.37260100      -3.12935662      -3.86890427
H       -2.32754249      -3.54025026      -4.56234607
H       -0.41967215      -2.08726583      -3.44791270
H       -2.04588518      -7.42073908      -2.24012560
H       -2.11346856      -6.46112152       1.95827313
H       -4.25033833      -5.23864825       1.62898939
C       -0.74705962      -7.78406333       0.06719181
C        0.25651484      -8.43321620       0.22804845
Br       1.87920985      -9.48284150       0.48814004
C       -4.21943520       5.46427989       5.84887196
C       -5.43717116       5.27235733       4.96126516
N       -5.07287506       4.85577053       3.60269539
C       -4.95587711       3.41112684       3.37802344
C       -3.59585554       2.98197981       2.91938622
C       -2.34923750       3.29382687       3.43310991
C       -1.29387145       2.59153517       2.77485825
C       -1.78161256       1.78161256       1.78161256
S       -3.46436257       1.84092865       1.63717657
C       -4.95693686       5.87651052       2.64931725
O       -5.07183770       7.06432272       2.96798412
C       -4.62199470       5.63552994       1.22942454
C       -3.66016412       6.49218536       0.66322529
C       -3.36595711       6.41156242      -0.69833081
C       -4.00536351       5.47031145      -1.50538427
C       -4.97622996       4.63953745      -0.94735569
C       -5.30049077       4.74860299       0.40688876
F       -6.32471103       4.01407382       0.86064546
H       -4.51625283       5.87338654       6.82021879
H       -3.49912806       6.15206021       5.39315409
H       -3.71036914       4.51168654       6.02873871
H       -5.99720084       6.21290985       4.92487559
H       -6.11940602       4.53197317       5.39537531
H       -5.75284174       3.09535201       2.70452800
H       -5.15204243       2.89284983       4.32596964
H       -2.19517385       3.97656518       4.25839978
H       -0.24558589       2.67751565       3.03174914
H       -3.17750374       7.24796244       1.28128369
H       -3.77711358       5.40398052      -2.56477715
H       -5.50507782       3.92370380      -1.56878443
C       -2.41770684       7.32604919      -1.27982488
C       -1.62354723       8.09193186      -1.76682617
Br      -0.33945832       9.33029936      -2.55426607
C        6.08406491      -4.39398832       5.05453381
C        4.94528955      -5.34505745       5.38044665
N        3.63079885      -4.72788022       5.17266190
C        3.06028293      -4.85706720       3.82767726
C        2.79599914      -3.54347688       3.15774556
C        3.62046513      -2.44123025       3.01447889
C        3.03271179      -1.41812220       2.20943088
C        1.78161256      -1.78161256       1.78161256
S        1.31309894      -3.31570728       2.31366156
C        3.02769866      -4.15461187       6.30045409
O        3.61904825      -4.10152799       7.38356829
C        1.69595895      -3.51247382       6.27851641
C        1.58900221      -2.27925637       6.94731619
C        0.34629965      -1.65776713       7.07512194
C       -0.79567545      -2.24064259       6.52532354
C       -0.69141876      -3.47484637       5.88498411
C        0.54572254      -4.11681274       5.79344725
F        0.56626958      -5.35368885       5.27947188
H        7.04588064      -4.84646815       5.31750938
H        5.98638061      -3.45246689       5.60549486
H        6.10614701      -4.15942494       3.98522244
H        5.04458273      -5.66815909       6.42224446
H        5.01655250      -6.25588050       4.77432150
H        2.17736621      -5.49430486       3.88105068
H        3.77492927      -5.40046683       3.19546579
H        4.61061427      -2.37374424       3.44578031
H        3.51436621      -0.48127226       1.95921222
H        2.47136865      -1.83224798       7.40313324
H       -1.76368386      -1.75844877       6.62155204
H       -1.57592329      -3.95619061       5.47972987
C        0.23746726      -0.42131441       7.80514947
C        0.14632013       0.61421474       8.41654752
Br      -0.00105706       2.28857780       9.40512646
C       -0.00445707       0.01189536      -1.78238275
H       -0.66409135       0.67374010      -2.43557963
H        0.65740317      -0.63156657      -2.45157240
C       -0.90989263      -0.90692880      -0.91072765
C        0.90977584       0.90977584      -0.90977584
C       -0.00465871       1.77757030       0.00794375
H       -0.66225468       2.44313916      -0.64384735
H        0.64322798       2.43503045       0.67728295
C       -1.78241447       0.00034974      -0.00472694
H       -2.45427497      -0.65498947       0.64260836
H       -2.43311707       0.67328779      -0.65473579
C       -0.91132561       0.90220522       0.91563759
C       -0.01476271      -0.02253852       1.78660255
H       -0.67934791      -0.69751639       2.42135241
H        0.63392994       0.61504881       2.47327442
C        0.01484550      -1.77751727      -0.01636693
H        0.67870853      -2.42144646      -0.68295456
H       -0.62264859      -2.45592969       0.64226336
C        1.78714474       0.01002794       0.00389507
H        2.44202412       0.67113390       0.66197326
H        2.45385902      -0.65136977      -0.64189061
C        0.91606151      -0.90478549       0.90901405
