146
Properties=species:S:1:pos:R:3 pbc="F F F"
C        6.08444348       4.39457945      -5.05356411
C        4.94531000       5.34480770      -5.38067596
N        3.63105450       4.72699540      -5.17329107
C        3.05969270       4.85662640      -3.82870829
C        2.79577799       3.54326912      -3.15817446
C        3.62079377       2.44157825      -3.01380226
C        3.03316544       1.41859499      -2.20850444
C        1.78161256       1.78161256      -1.78161256
S        1.31252447       3.31513267      -2.31481065
C        3.02893066       4.15273414      -6.30109982
O        3.62093217       4.09936839      -7.38384397
C        1.69754715       3.50984452      -6.27955751
C        1.59168172       2.27618245      -6.94771061
C        0.34940943       1.65390684      -7.07587246
Br       0.20787762       0.02847682      -8.03433641
C       -0.79321521       2.23644204      -6.52706386
C       -0.69003406       3.47107257      -5.88737322
C        0.54668604       4.11380131      -5.79549519
F        0.56622856       5.35098363      -5.28221812
H        7.04615027       4.84746032      -5.31624757
H        5.98761553       3.45268621      -5.60404062
H        6.10604638       4.16064221      -3.98410580
H        5.04501575       5.66736862      -6.42260192
H        5.01570255       6.25601904      -4.77503291
H        2.17644136       5.49332648      -3.88295391
H        3.77366423       5.40079870      -3.19639897
H        4.61122884       2.37441316      -3.44449682
H        3.51521349       0.48216534      -1.95747186
H        2.47456590       1.82941917      -7.40276479
H       -1.76089147       1.75363758      -6.62357084
H       -1.57504702       3.95214144      -5.48290276
C       -4.28600519      -5.98290813      -5.26367373
C       -5.50247841      -5.09275886      -5.07555638
N       -5.39914563      -4.25962897      -3.87256637
C       -4.74673680      -2.95692728      -4.04136331
C       -3.52682882      -2.78040352      -3.18998923
C       -2.44320973      -3.62231948      -3.01064506
C       -1.42525459      -3.03939329      -2.19561699
C       -1.78161256      -1.78161256      -1.78161256
S       -3.29270530      -1.29155107      -2.35821142
C       -6.00644698      -4.76246655      -2.71385109
O       -6.52076846      -5.88535191      -2.69802416
C       -6.02066070      -4.04558611      -1.42070237
C       -5.72149083      -4.81362938      -0.28045456
C       -5.82243026      -4.24768581       0.99092734
Br      -5.48274655      -5.30854486       2.52060057
C       -6.19995330      -2.91334002       1.14300263
C       -6.52024367      -2.16145806       0.01329002
C       -6.45931613      -2.74014020      -1.25652620
F       -6.89615441      -2.01122530      -2.29205059
H       -4.43853397      -6.66373479      -6.10758940
H       -4.09070426      -6.58427061      -4.36936749
H       -3.39155594      -5.38682029      -5.47241815
H       -6.39467098      -5.72516680      -5.01514850
H       -5.64882044      -4.44786887      -5.95006519
H       -5.48816797      -2.17161728      -3.89293649
H       -4.42410043      -2.86028569      -5.08647578
H       -2.36693600      -4.60423643      -3.45896639
H       -0.48876883      -3.52138887      -1.94469299
H       -5.45329528      -5.86350467      -0.38994991
H       -6.27752776      -2.46971310       2.13092391
H       -6.84608290      -1.13127905       0.11736476
C       -4.39824549       5.04758106       6.08676050
C       -5.34326338       5.38208800       4.94544228
N       -4.72152882       5.17716035       3.63265180
C       -4.85388488       3.83507454       3.05606797
C       -3.54197843       3.16082217       2.79442097
C       -2.44373916       3.00962577       3.62280934
C       -1.42153097       2.20278596       3.03594794
C       -1.78161256       1.78161256       1.78161256
S       -3.31156380       2.32190374       1.30900024
C       -4.14115076       6.30504625       3.03656760
O       -4.08605801       7.38549436       3.63259217
C       -3.49362135       6.28593044       1.70739740
C       -2.25723675       6.95007216       1.60826585
C       -1.63010797       7.08041670       0.36866405
Br      -0.00080736       8.03360167       0.23628181
C       -2.21052200       6.53772187      -0.77795319
C       -3.44776488       5.90205517      -0.68140832
C       -4.09519854       5.80808620       0.55269778
F       -5.33424946       5.29913625       0.56604459
H       -4.85360425       5.30846787       7.04778604
H       -3.45407420       5.59505098       5.99521718
H       -4.16816907       3.97722972       6.10539559
H       -5.66249013       6.42479287       5.04770328
H       -6.25685441       4.77943683       5.01046326
H       -5.48725122       3.89470149       2.17076904
H       -5.40281930       3.20217963       3.76586297
H       -2.37856639       3.43657477       4.61499766
H       -0.48771104       1.94672952       3.52041013
H       -1.81200282       7.40041385       2.49433319
H       -1.72394887       6.63593593      -1.74356785
H       -3.92711758       5.50242583      -1.56954622
C        5.09739644      -6.06648850       4.36870210
C        5.37018536      -4.94466167       5.35594662
N        5.14427938      -3.62039408       4.76666751
C        3.78231774      -3.08713824       4.87557142
C        3.13884840      -2.80610979       3.55226338
C        3.04431398      -3.60539558       2.42646472
C        2.25027649      -3.01191833       1.39807005
C        1.78161256      -1.78161256       1.78161256
S        2.26301308      -1.33940314       3.34005156
C        6.27021891      -2.97483493       4.23771078
O        7.36911087      -3.53739952       4.19763414
C        6.23022261      -1.62804920       3.62867737
C        6.92665036      -1.47287545       2.41604896
C        7.03806640      -0.21185942       1.82926290
Br       8.03367812      -0.00336742       0.23364530
C        6.44481690       0.90072725       2.42620104
C        5.77673750       0.74893726       3.64061148
C        5.70091337      -0.50613982       4.24892934
F        5.15690650      -0.57118668       5.47133712
H        5.37353813      -7.03271047       4.80360956
H        5.66901427      -5.93099463       3.44433346
H        4.03519235      -6.10925127       4.10635077
H        6.40579116      -5.02615115       5.70304397
H        4.74352863      -5.05434239       6.24888348
H        3.79713141      -2.21977433       5.53581600
H        3.15524450      -3.83103177       5.38458563
H        3.50238378      -4.58241239       2.34534264
H        2.03594840      -3.47551874       0.44338355
H        7.41593688      -2.33184622       1.95896676
H        6.52823280       1.88286884       1.97095299
H        5.33706926       1.61042800       4.13335593
C       -0.00445707       0.01189536      -1.78238275
H       -0.66409135       0.67374010      -2.43557963
H        0.65740317      -0.63156657      -2.45157240
C       -0.90989263      -0.90692880      -0.91072765
C        0.90977584       0.90977584      -0.90977584
C       -0.00465871       1.77757030       0.00794375
H       -0.66225468       2.44313916      -0.64384735
H        0.64322798       2.43503045       0.67728295
C       -1.78241447       0.00034974      -0.00472694
H       -2.45427497      -0.65498947       0.64260836
H       -2.43311707       0.67328779      -0.65473579
C       -0.91132561       0.90220522       0.91563759
C       -0.01476271      -0.02253852       1.78660255
H       -0.67934791      -0.69751639       2.42135241
H        0.63392994       0.61504881       2.47327442
C        0.01484550      -1.77751727      -0.01636693
H        0.67870853      -2.42144646      -0.68295456
H       -0.62264859      -2.45592969       0.64226336
C        1.78714474       0.01002794       0.00389507
H        2.44202412       0.67113390       0.66197326
H        2.45385902      -0.65136977      -0.64189061
C        0.91606151      -0.90478549       0.90901405
