185
Properties=species:S:1:pos:R:3 pbc="F F F"
C        0.00000000       0.00000000       0.00000000
C        0.88131653       0.88131653      -0.88131653
C        1.13056105       2.19975352      -0.51160786
C        1.94877373       3.00660199      -1.31144861
C        2.52812208       2.50590050      -2.48937808
C        2.25743852       1.17012573      -2.84057187
C        1.43889255       0.36168212      -2.04499523
C        3.43151448       3.29828421      -3.34130374
N        4.23315998       2.78194090      -4.25579460
N        5.01173411       3.73551430      -4.88161743
C        4.76088530       4.93792509      -4.42963641
N        5.31739787       6.13771236      -4.76910247
C        6.39479377       6.22066825      -5.62391912
O        7.00212013       5.26993251      -6.10982567
C        6.80275019       7.68202277      -5.91571129
H        5.89833281       8.25881110      -6.14140291
C        7.80911722       7.77914885      -7.06642522
C        9.15555840       7.63862113      -6.36704351
C        8.94318958       8.39070722      -5.06532563
N        7.52047429       8.27063790      -4.77405725
C        6.83563459       8.76532610      -3.67968206
O        5.62008206       8.59284141      -3.57875921
N        7.63416447       9.42074626      -2.77633911
C        7.29176548      10.06758853      -1.56941455
C        5.98683164      10.16330194      -1.08707825
C        5.72272416      10.81890115       0.12175470
C        6.75897699      11.38732858       0.86091132
C        8.06631150      11.30604414       0.39235206
C        8.33179378      10.65293497      -0.81459744
Br      10.14107989      10.58434307      -1.40197744
S        3.53920384       5.02012625      -3.24611194
H        0.70361685       2.60967082       0.40029406
H        2.13545211       4.02489713      -0.97928359
H        2.69450284       0.74342284      -3.74368868
H        1.25354916      -0.66789641      -2.34051434
H        4.99923247       6.97411255      -4.28185392
H        7.74474983       8.77089960      -7.53019709
H        7.66509382       7.02970929      -7.84942674
H        9.36934288       6.58365165      -6.16122796
H        9.98520912       8.04291843      -6.95323017
H        9.53685694       7.97634868      -4.24513600
H        9.17774320       9.45498103      -5.17897371
H        8.61941426       9.44583144      -2.98388157
H        5.14693735       9.73912779      -1.63022059
H        4.70021599      10.88539381       0.48638210
H        6.54743006      11.89329707       1.79920270
H        8.87137939      11.75286846       0.97027788
C       -0.88131653      -0.88131653      -0.88131653
C       -1.07846810      -0.54584647      -2.21760786
C       -1.87606703      -1.35923581      -3.03152149
C       -2.48542194      -2.51744317      -2.52053555
C       -2.27112651      -2.83157531      -1.16543431
C       -1.47653635      -2.02025347      -0.34878008
C       -3.29604127      -3.43034485      -3.34471631
N       -3.61034468      -4.66514613      -2.99540467
N       -4.33674837      -5.32525851      -3.96685897
C       -4.55818521      -4.56286306      -5.00739854
N       -5.21514565      -4.83630875      -6.17275829
C       -5.66377225      -6.10439026      -6.47121863
O       -5.47880430      -7.11104011      -5.79203390
C       -6.43920042      -6.15465798      -7.80662585
H       -7.14881996      -5.31950783      -7.83021903
C       -7.16578005      -7.48926495      -7.99964628
C       -6.11876855      -8.36300375      -8.67945073
C       -5.40890024      -7.38827234      -9.60204984
N       -5.52236225      -6.08733619      -8.95547098
C       -5.01190603      -4.87834574      -9.39039098
O       -5.20342643      -3.85261025      -8.73564599
N       -4.30330284      -4.96558095     -10.56236605
C       -3.66510381      -3.95307390     -11.31059086
C       -3.67768374      -2.60478860     -10.95473949
C       -3.01897483      -1.65531136     -11.74558442
C       -2.34205427      -2.04215493     -12.90118504
C       -2.32347160      -3.38218642     -13.27434557
C       -2.98128448      -4.33127273     -12.48676897
Br      -2.92316814      -6.14602151     -13.05821075
S       -3.94571145      -2.97893078      -4.88079980
H       -0.61032598       0.33897772      -2.64164534
H       -1.99047956      -1.07456824      -4.07458504
H       -2.72144701      -3.72597935      -0.73418799
H       -1.32565451      -2.29312239       0.69260980
H       -5.26431349      -4.10762680      -6.88325866
H       -8.01669691      -7.35145718      -8.67769244
H       -7.54038324      -7.93139401      -7.07245260
H       -5.41528057      -8.76007462      -7.93886730
H       -6.55369522      -9.20862671      -9.21903579
H       -4.35714109      -7.64955561      -9.75164493
H       -5.90794836      -7.32807879     -10.57567079
H       -4.20399154      -5.88596194     -10.95917379
H       -4.19503336      -2.25586893     -10.06538345
H       -3.03636725      -0.60719897     -11.45566147
H       -1.83138572      -1.30046421     -13.50967450
H       -1.79675958      -3.67958615     -14.17762425
C       -0.88131653       0.88131653       0.88131653
C       -2.02339680       1.47103416       0.34749147
C       -2.84042228       2.26959918       1.15680287
C       -2.52673886       2.48789169       2.50877012
C       -1.36488125       1.88144481       3.02181007
C       -0.54518201       1.08462888       2.21575901
C       -3.37594279       3.28158734       3.41357230
N       -3.29333217       3.24587140       4.73169191
N       -4.23515918       4.04712304       5.34658363
C       -4.98484576       4.67030057       4.47330048
N       -6.02683675       5.53145358       4.66592236
C       -6.53944719       5.77936126       5.92057268
O       -6.18624279       5.23309758       6.96253794
C       -7.66278508       6.83989035       5.89780882
H       -7.33387362       7.68401097       5.28066223
C       -8.03700242       7.31130684       7.30638204
C       -9.10894745       6.31695617       7.73531941
C       -9.87865714       6.07056337       6.45000193
N       -8.91629174       6.27397926       5.37489842
C       -9.12548411       6.14031593       4.01484271
O       -8.20911871       6.36089455       3.22166942
N      -10.39839083       5.74673037       3.68612865
C      -10.97918157       5.53185001       2.41773698
C      -10.30032833       5.72228941       1.21459409
C      -10.94142726       5.48617607      -0.00773272
C      -12.26792221       5.05890877      -0.04143674
C      -12.96228667       4.86878069       1.14893622
C      -12.32436320       5.10494554       2.37001744
Br     -13.33385847       4.83288373       3.96065819
S       -4.58811088       4.37324985       2.84408131
H       -2.29544545       1.31025824      -0.69271010
H       -3.73399995       2.69705627       0.70857661
H       -1.09195876       2.02162171       4.06803389
H        0.34252851       0.62539606       2.64329955
H       -6.50665435       5.90170417       3.84684043
H       -8.47536602       8.31530499       7.25517551
H       -7.19556997       7.34488429       8.00377559
H       -8.64728147       5.38531288       8.08162815
H       -9.74635642       6.69656307       8.53843824
H      -10.29521973       5.06005993       6.40306198
H      -10.68647419       6.80023071       6.32499305
H      -11.02559840       5.56952667       4.45400221
H       -9.26728396       6.05787591       1.19112586
H      -10.39960199       5.63808245      -0.93845675
H      -12.75915427       4.87581190      -0.99344174
H      -13.99741460       4.53807354       1.11848183
C        0.88131653      -0.88131653       0.88131653
C        0.30967356      -1.61689696       1.91535191
C        1.11370283      -2.43583504       2.71728646
C        2.49779910      -2.53020665       2.49539491
C        3.04971893      -1.77380096       1.44461623
C        2.24987558      -0.95304206       0.64265226
C        3.38016299      -3.41044627       3.28049316
N        4.59679090      -3.76618148       2.90792310
N        5.19377303      -4.63651000       3.79858282
C        4.41492365      -4.89545864       4.81806452
N        4.62018198      -5.70787315       5.89615756
C        5.72815211      -6.52152295       5.98970608
O        6.59208736      -6.66191686       5.12787409
C        5.78058815      -7.29200776       7.32788834
H        5.56384719      -6.59177316       8.14292647
C        7.13429449      -7.97504450       7.54535230
C        6.95365801      -9.33180605       6.87575897
C        5.51325183      -9.68358676       7.20238384
N        4.82162591      -8.40793852       7.33560500
C        3.48210897      -8.19505760       7.60347618
O        3.04353013      -7.04797367       7.70017888
N        2.75187369      -9.35013006       7.72924609
C        1.38200329      -9.52665080       8.02011447
C        0.50143605      -8.47292344       8.26285234
C       -0.84735091      -8.72456396       8.54265756
C       -1.33066718     -10.03144064       8.58462078
C       -0.46539450     -11.09521683       8.35018125
C        0.88151222     -10.84607562       8.07173834
Br       2.01255179     -12.34668492       7.76816369
S        2.92023517      -4.07952618       4.80568069
H       -0.76024224      -1.57072816       2.10250768
H        0.62753654      -3.00962594       3.50247035
H        4.11875345      -1.82599754       1.23686337
H        2.70548578      -0.38554521      -0.16486389
H        3.87400801      -5.79691944       6.58427150
H        7.30533144      -8.12185473       8.61866036
H        7.98444802      -7.41943029       7.14035154
H        7.08192844      -9.24113143       5.79116262
H        7.66026147     -10.08367046       7.23742578
H        5.04693131     -10.29062444       6.42078588
H        5.44077551     -10.21063722       8.16028521
H        3.24990928     -10.21368512       7.58553286
H        0.83316353      -7.43852833       8.24459388
H       -1.52310108      -7.89304206       8.72928671
H       -2.37898683     -10.21982712       8.80068413
H       -0.84548775     -12.11305862       8.38639909
