165
Properties=species:S:1:pos:R:3 pbc="F F F"
C        0.00000000       0.00000000       0.00000000
C        0.88079544       0.88079544      -0.88079544
C        1.80806395       0.30118786      -1.73610134
C        2.62078966       1.11264976      -2.54064326
C        2.51676239       2.51614457      -2.52127376
C        1.57430003       3.06652606      -1.63594785
C        0.76286992       2.26181033      -0.82376008
N        3.37640699       3.35019832      -3.33885334
C        4.64527137       2.75766958      -3.79847689
C        5.45260923       3.61994000      -4.76226553
N        5.52120065       4.97638344      -4.24774808
C        4.20433959       5.61776184      -4.14892807
H        4.26946086       6.47015637      -3.46264585
C        3.76706628       6.17095009      -5.50696826
C        3.08430039       4.71051916      -3.56859495
O        1.96600772       5.20933546      -3.40020881
C        6.53489636       5.43373619      -3.40163208
O        6.37298138       6.33621362      -2.58508768
C        7.88938144       4.83229633      -3.47857554
C        8.56894464       4.56822533      -2.28249928
C        9.86198993       4.04544719      -2.31367967
C       10.48020445       3.79256199      -3.53845362
C        9.80843644       4.08185939      -4.72712982
C        8.52190703       4.61798431      -4.70668973
H        1.90920789      -0.77969715      -1.79172570
H        3.31125891       0.59310197      -3.19467850
H        1.46068499       4.14091676      -1.51818832
H        0.05162194       2.73374281      -0.15135733
H        4.44890419       1.81711373      -4.32028284
H        5.24427163       2.55057680      -2.90269637
H        6.43608542       3.16910448      -4.89887245
H        4.97219721       3.64928955      -5.74613427
H        3.55069495       5.37064846      -6.22197312
H        4.54581926       6.80914001      -5.93780699
H        2.85545051       6.77000477      -5.40812937
H        8.09585257       4.78457438      -1.32624708
H       10.39109852       3.84697344      -1.38417903
H       11.48892227       3.38563996      -3.55558704
H        8.01929691       4.87667112      -5.63470698
C       10.45224773       3.82560635      -5.98944571
C       10.99143969       3.61099443      -7.04663526
Br      11.86326747       3.26398510      -8.75602136
C       -0.88079544      -0.88079544      -0.88079544
C       -1.06089967      -0.56404846      -2.22040502
C       -1.87553244      -1.37158193      -3.02696832
C       -2.51503975      -2.51857151      -2.52056946
C       -2.31719925      -2.80131026      -1.15826443
C       -1.50943470      -1.99487254      -0.34413309
N       -3.37473439      -3.33622958      -3.35449468
C       -3.94532876      -2.70049915      -4.55558993
C       -4.73192536      -3.63175164      -5.47113777
N       -5.64013558      -4.43431752      -4.67087907
C       -4.94350208      -5.30842878      -3.71909865
H       -5.64507184      -5.62052310      -2.93666813
C       -4.45212992      -6.58160582      -4.41124889
C       -3.76381027      -4.63452051      -2.96508372
O       -3.17515025      -5.29695228      -2.10344946
C       -6.94976530      -4.05242382      -4.36807551
O       -7.53564849      -4.40892665      -3.34970753
C       -7.70376318      -3.18740207      -5.30908806
C       -8.48639514      -2.15300651      -4.78026760
C       -9.24561794      -1.34679651      -5.62870234
C       -9.22974805      -1.57690239      -7.00456962
C       -8.46855336      -2.62529778      -7.52357452
C       -7.71801760      -3.44565391      -6.68290957
H       -0.57254147       0.30506044      -2.65375541
H       -1.95937136      -1.07401544      -4.06565259
H       -2.81162912      -3.63737147      -0.67078949
H       -1.39035870      -2.25139116       0.70502778
H       -3.14488231      -2.27470514      -5.16671330
H       -4.59885445      -1.89025093      -4.20843942
H       -5.24699189      -3.03357922      -6.22349124
H       -4.05515499      -4.30759928      -6.00486676
H       -3.64703024      -6.37309122      -5.12319507
H       -5.26760748      -7.07005323      -4.95510555
H       -4.05855606      -7.29540283      -3.67962576
H       -8.51612038      -1.98550784      -3.70504581
H       -9.85806794      -0.54803089      -5.21615215
H       -9.82472923      -0.94502029      -7.66039974
H       -7.15801273      -4.28363784      -7.08902444
C       -8.45976138      -2.86389567      -8.94364274
C       -8.45239811      -3.06372140     -10.13294987
Br      -8.44049231      -3.38682270     -12.05595892
C       -0.88079544       0.88079544       0.88079544
C       -0.30818494       1.87605455       1.66111367
C       -1.11882466       2.68079111       2.47446691
C       -2.51661031       2.52128795       2.51628247
C       -3.05861690       1.49744674       1.72071030
C       -2.25376008       0.68464562       0.91003463
N       -3.34661962       3.34163279       3.37720624
C       -2.68930653       3.98098732       4.53112400
C       -3.56700204       4.93821091       5.32960181
N       -4.85175786       4.31021356       5.58336074
C       -5.59866994       4.01882357       4.35353599
H       -6.36698319       3.26692674       4.56835315
C       -6.32544020       5.26824724       3.85129719
C       -4.74441743       3.41368998       3.20530709
O       -5.32468012       3.08681221       2.16405966
C       -5.12482501       3.53320537       6.71223425
O       -5.95044989       2.62451395       6.71931884
C       -4.41176435       3.80307083       7.98541812
C       -3.96547803       2.71204721       8.74214400
C       -3.33134452       2.92305202       9.96672025
C       -3.14857344       4.22256567      10.44008095
C       -3.61837146       5.30472272       9.69433148
C       -4.26621739       5.10378671       8.47657697
H        0.76609731       2.04135754       1.64597621
H       -0.60707195       3.44700529       3.04496215
H       -4.12128556       1.26992857       1.72857594
H       -2.71839851      -0.09747871       0.31580227
H       -1.82903487       4.56474197       4.19252391
H       -2.33751250       3.17392509       5.18610721
H       -3.04348442       5.21543492       6.24514300
H       -3.74076238       5.86103904       4.76581960
H       -5.62563104       6.02836153       3.48932396
H       -6.92950294       5.71538626       4.64787706
H       -6.99297555       5.02205829       3.01855081
H       -4.12601931       1.69667090       8.38398382
H       -2.99110987       2.07466950      10.55647161
H       -2.65404039       4.37996693      11.39614195
H       -4.66349213       5.94783600       7.91934687
C       -3.43372564       6.64434166      10.18923248
C       -3.27908477       7.76627253      10.60371207
Br      -3.02904356       9.58033985      11.27389051
C        0.88079544      -0.88079544       0.88079544
C        1.17196562      -2.18133966       0.49204787
C        1.97696018      -2.99129302       1.30582949
C        2.52052497      -2.51864014       2.51501562
C        2.19569474      -1.20100136       2.88007784
C        1.38614355      -0.38749844       2.07479834
N        3.33317858      -3.36911115       3.36316892
C        3.17803753      -4.82547021       3.19791011
C        4.14486083      -5.67762669       4.01232725
N        4.18594415      -5.18236358       5.37702443
C        4.69208442      -3.80753008       5.47141500
H        4.39045417      -3.37795633       6.43385257
C        6.22171877      -3.78882926       5.43443661
C        4.13106833      -2.83590760       4.39643857
O        4.46863287      -1.64849125       4.45842788
C        3.34046996      -5.63757734       6.39221733
O        3.00280334      -4.94405066       7.34742868
C        2.82011311      -7.02682022       6.35331997
C        1.47938272      -7.24485257       6.69543395
C        0.96468914      -8.54136347       6.71506418
C        1.78947933      -9.62154437       6.40019637
C        3.13116202      -9.40090165       6.08536199
C        3.65870896      -8.11069512       6.07717699
H        0.78382312      -2.57944106      -0.44202774
H        2.17556279      -3.98961132       0.93386528
H        2.52963204      -0.76997666       3.82018137
H        1.15870565       0.62354817       2.40156460
H        3.33534279      -5.09972241       2.15123556
H        2.14643941      -5.07103033       3.48007505
H        3.83320408      -6.72076454       3.95009373
H        5.15547137      -5.61785115       3.59429851
H        6.60879445      -4.08145015       4.45307193
H        6.63881872      -4.47280775       6.18113978
H        6.60403116      -2.78430271       5.64525078
H        0.84005432      -6.40495784       6.96166187
H       -0.07493162      -8.70989814       6.98728447
H        1.38193317     -10.62999464       6.41822146
H        4.71284061      -7.94906779       5.86876660
C        3.98113158     -10.51891663       5.76725157
C        4.69298110     -11.45525418       5.50083410
Br       5.84398155     -12.96923280       5.07005958
