178
Properties=species:S:1:pos:R:3 pbc="F F F"
C        1.79069946       1.79069946      -1.79069946
C        2.71796798       1.21109189      -2.64600536
C        3.53069369       2.02255379      -3.45054728
C        3.42666642       3.42604860      -3.43117778
C        2.48420405       3.97643008      -2.54585187
C        1.67277394       3.17171435      -1.73366411
N        4.28631102       4.26010235      -4.24875736
C        5.55517539       3.66757361      -4.70838092
C        6.36251326       4.52984403      -5.67216955
N        6.43110468       5.88628746      -5.15765210
C        5.11424362       6.52766586      -5.05883209
H        5.17936488       7.38006040      -4.37254987
C        4.67697031       7.08085411      -6.41687229
C        3.99420441       5.62042318      -4.47849898
O        2.87591175       6.11923948      -4.31011284
C        7.44480038       6.34364022      -4.31153611
O        7.28288540       7.24611764      -3.49499171
C        8.79928546       5.74220036      -4.38847956
C        9.47884866       5.47812935      -3.19240330
C       10.77189395       4.95535122      -3.22358369
C       11.39010848       4.70246602      -4.44835764
C       10.71834047       4.99176342      -5.63703384
Br      11.56373276       4.65527608      -7.29458808
C        9.43181105       5.52788834      -5.61659375
H        2.81911191       0.13020688      -2.70162973
H        4.22116294       1.50300600      -4.10458253
H        2.37058901       5.05082078      -2.42809235
H        0.96152596       3.64364684      -1.06126135
H        5.35880821       2.72701776      -5.23018686
H        6.15417566       3.46048082      -3.81260039
H        7.34598944       4.07900850      -5.80877647
H        5.88210124       4.55919357      -6.65603829
H        4.46059898       6.28055248      -7.13187715
H        5.45572328       7.71904403      -6.84771101
H        3.76535453       7.67990879      -6.31803340
H        9.00575660       5.69447840      -2.23615111
H       11.30100254       4.75687746      -2.29408305
H       12.39882629       4.29554398      -4.46549107
H        8.92920093       5.78657515      -6.54461100
C       -1.79069946      -1.79069946      -1.79069946
C       -2.41987264      -1.25090362      -2.90428896
C       -3.23372666      -2.06072608      -3.70934202
C       -3.42577374      -3.42700000      -3.43111905
C       -2.78103269      -3.93502539      -2.29042793
C       -1.97111380      -3.12991021      -1.47712839
N       -4.28728577      -4.25331924      -4.25456572
C       -5.31014589      -3.56163004      -5.05935398
C       -6.10225050      -4.45412625      -6.00815009
N       -6.53498172      -5.64380208      -5.29626044
C       -5.41470617      -6.46501255      -4.82102285
H       -5.76943980      -7.13413133      -4.02840401
C       -4.87678052      -7.35199453      -5.94592165
C       -4.24691436      -5.66119475      -4.18501746
O       -3.30045440      -6.29699461      -3.70781506
C       -7.74966973      -5.73834057      -4.61196641
O       -7.91801338      -6.46742381      -3.63855757
C       -8.91814149      -4.94473200      -5.06709189
C       -9.72162908      -4.32862835      -4.09912389
C      -10.85485174      -3.61183047      -4.48414666
C      -11.19076781      -3.51543289      -5.83473144
C      -10.40124316      -4.15300188      -6.79289268
Br     -10.86545427      -4.02660823      -8.62153442
C       -9.27522628      -4.88376882      -6.41729805
H       -2.28532916      -0.20349856      -3.16212080
H       -3.68120344      -1.57754388      -4.57000413
H       -2.91276244      -4.96549233      -1.97124738
H       -1.49692281      -3.56694658      -0.60256476
H       -4.83867686      -2.79594494      -5.68139103
H       -5.99677283      -3.07594696      -4.35453708
H       -6.93405420      -3.88089805      -6.41882216
H       -5.47836436      -4.76652863      -6.85244012
H       -4.38213416      -6.76465771      -6.72623673
H       -5.68561917      -7.92363578      -6.41322337
H       -4.13834602      -8.06365304      -5.56129766
H       -9.47248979      -4.42048683      -3.04340948
H      -11.48161712      -3.13936874      -3.73097720
H      -12.07621227      -2.95564060      -6.12800847
H       -8.68664982      -5.40945911      -7.16427816
C       -1.79069946       1.79069946       1.79069946
C       -1.71020397       3.17310691       1.69175434
C       -2.51642331       3.98105194       2.50631952
C       -3.42941774       3.42973873       3.42473633
C       -3.47546968       2.02737964       3.50363669
C       -2.66777852       1.21323625       2.69713763
N       -4.24348459       4.27115733       4.28052881
C       -3.76548587       5.64446131       4.52118274
C       -4.71676280       6.53296397       5.31480008
N       -5.19741373       5.80292263       6.47470787
C       -5.97385177       4.60922207       6.11766773
H       -6.01563323       3.93514752       6.98119440
C       -7.41715647       4.98364350       5.77389674
C       -5.36516198       3.76143242       4.96653217
O       -5.93651994       2.70929030       4.65945383
C       -4.56146363       5.81963847       7.71887460
O       -4.61975823       4.88791551       8.51632101
C       -3.78265488       7.01238135       8.13492915
C       -2.55541996       6.81363804       8.78032331
C       -1.81513039       7.90833525       9.22736323
C       -2.30247234       9.20156088       9.03689892
C       -3.53799042       9.39264889       8.41649841
Br      -4.19829399      11.14701206       8.16829087
C       -4.29208087       8.30488164       7.97933064
H       -1.02845097       3.63821822       0.98427933
H       -2.41254096       5.05056536       2.36564513
H       -4.11393922       1.51624930       4.21931363
H       -2.73550796       0.13339663       2.79752956
H       -3.59668053       6.15185129       3.56748101
H       -2.81051309       5.56147187       5.05527190
H       -4.19856135       7.45500935       5.58020372
H       -5.58075106       6.81365669       4.70292535
H       -7.47877052       5.55325070       4.84100738
H       -7.86412274       5.58802016       6.57033542
H       -8.03198522       4.08641205       5.64489945
H       -2.18375341       5.80433618       8.94829651
H       -0.86536693       7.75234483       9.73425130
H       -1.72052727      10.05067567       9.38865840
H       -5.27026789       8.45838177       7.53173742
C        1.79069946      -1.79069946       1.79069946
C        1.82251348      -3.16383807       1.58871367
C        2.62827535      -3.97240711       2.40311229
C        3.42977215      -3.42938177       3.42473888
C        3.36359910      -2.03730619       3.60558072
C        2.55533428      -1.22328796       2.79953015
N        4.24297271      -4.27381949       4.27837853
C        3.85478790      -5.69169863       4.38464339
C        4.81241692      -6.56857533       5.18353458
N        5.15330745      -5.89658993       6.42514686
C        5.86016070      -4.62747543       6.21310544
H        5.78968523      -4.01960749       7.12268243
C        7.34835111      -4.87203850       5.95430710
C        5.27157179      -3.73980973       5.08174506
O        5.78166740      -2.62974234       4.89385433
C        4.43432830      -6.05246311       7.61318530
O        4.36538503      -5.18215407       8.47645566
C        3.72088368      -7.32527039       7.88381131
C        2.43966622      -7.26309470       8.44662040
C        1.75490906      -8.43801920       8.75790061
C        2.35119126      -9.67547640       8.51426448
C        3.63830428      -9.73135057       7.97748288
Br       4.44568113     -11.41088877       7.65702702
C        4.33661792      -8.56309486       7.67658036
H        1.22960091      -3.62082863       0.80051898
H        2.61602720      -5.03281706       2.17990720
H        3.90939072      -1.53821815       4.40189328
H        2.53368048      -0.15209954       2.98065413
H        3.79263197      -6.13589150       3.38748937
H        2.86099920      -5.71701261       4.84924506
H        4.34825805      -7.54233566       5.34318071
H        5.73619690      -6.74041337       4.62072284
H        7.51862901      -5.36344784       4.99095176
H        7.78262302      -5.50208731       6.73776800
H        7.90088334      -3.92649693       5.93591646
H        1.98156777      -6.29817184       8.65664650
H        0.76267993      -8.38829351       9.20098962
H        1.81200908     -10.58774548       8.76010678
H        5.35274825      -8.61283914       7.29479969
C       -0.00445707       0.01189536      -1.78238275
H       -0.66409135       0.67374010      -2.43557963
H        0.65740317      -0.63156657      -2.45157240
C       -0.90989263      -0.90692880      -0.91072765
C        0.90977584       0.90977584      -0.90977584
C       -0.00465871       1.77757030       0.00794375
H       -0.66225468       2.44313916      -0.64384735
H        0.64322798       2.43503045       0.67728295
C       -1.78241447       0.00034974      -0.00472694
H       -2.45427497      -0.65498947       0.64260836
H       -2.43311707       0.67328779      -0.65473579
C       -0.91132561       0.90220522       0.91563759
C       -0.01476271      -0.02253852       1.78660255
H       -0.67934791      -0.69751639       2.42135241
H        0.63392994       0.61504881       2.47327442
C        0.01484550      -1.77751727      -0.01636693
H        0.67870853      -2.42144646      -0.68295456
H       -0.62264859      -2.45592969       0.64226336
C        1.78714474       0.01002794       0.00389507
H        2.44202412       0.67113390       0.66197326
H        2.45385902      -0.65136977      -0.64189061
C        0.91606151      -0.90478549       0.90901405
