141
Properties=species:S:1:pos:R:3 pbc="F F F"
C        0.00000000       0.00000000       0.00000000
C        4.23412634       6.49761733      -6.79324121
C        5.00347563       5.88401871      -5.63897977
N        4.16983590       4.97344462      -4.88491399
C        4.33095999       4.76871516      -3.53174456
O        5.14287101       5.41003176      -2.87122203
C        3.45817148       3.74728257      -2.96638585
C        2.84519012       2.68249010      -3.62171675
C        2.09645821       1.97278838      -2.64601981
S        1.05462285       0.59191562      -2.54314060
C        0.87466534       0.87466534      -0.87466534
C        1.57422683       1.94693152      -0.37819097
C        2.27642962       2.58334986      -1.44295092
N        3.10568760       3.67340693      -1.62683872
C        3.49758280       4.55873990      -0.53776156
C        2.63592992       5.79775665      -0.45808164
C        1.26876788       5.71444255      -0.14704432
C        0.49022097       6.86963946      -0.03164506
C        1.07526222       8.11770680      -0.21979663
Br       0.02675386       9.68052186      -0.04528564
C        2.42871607       8.22221146      -0.53135315
C        3.20448463       7.06566903      -0.65197933
H        4.87308509       7.18179259      -7.36001774
H        3.36627642       7.05830847      -6.42858915
H        3.86732249       5.72446324      -7.47615032
H        5.39040224       6.67045473      -4.98223676
H        5.85496159       5.30859044      -6.01576750
H        3.51995524       4.39044442      -5.39073755
H        2.92387366       2.42301757      -4.66826524
H        1.57503638       2.25969417       0.65767193
H        4.55929490       4.79713480      -0.65370640
H        3.42249277       4.00175260       0.40458498
H        0.79235027       4.75121931       0.01242851
H       -0.56582810       6.78140815       0.20916979
H        2.89103203       9.19423051      -0.67998092
H        4.26132779       7.16194370      -0.89932145
C       -6.78262152      -4.23279620      -6.50956715
C       -5.63485638      -5.00463849      -5.88697924
N       -4.88114791      -4.17026665      -4.97677994
C       -3.52971905      -4.33674249      -4.76495816
O       -2.87002491      -5.15472545      -5.39937445
C       -2.96504733      -3.46182224      -3.74497032
C       -3.62245908      -2.84080320      -2.68613469
C       -2.64658495      -2.09331354      -1.97536791
S       -2.54526747      -1.04550638      -0.59890521
C       -0.87466534      -0.87466534      -0.87466534
C       -0.37647774      -1.58155627      -1.94131531
C       -1.44153676      -2.28175856      -2.57943507
N       -1.62422154      -3.11525134      -3.66646037
C       -0.53287392      -3.51637188      -4.54483846
C       -0.44337310      -2.66091931      -5.78747581
C       -0.12632096      -1.29484814      -5.70908564
C       -0.00188243      -0.52227341      -6.86734966
C       -0.18694835      -1.11227578      -8.11354151
Br      -0.00023122      -0.07193264      -9.68039749
C       -0.50435650      -2.46473600      -8.21318819
C       -0.63401509      -3.23450173      -7.05361616
H       -7.34918861      -4.87230383      -7.19340297
H       -6.41129147      -3.36929611      -7.07258646
H       -7.46740409      -3.85918803      -5.74134393
H       -4.97627170      -5.39830914      -6.66851288
H       -6.01831389      -5.85164925      -5.30935639
H       -5.38663405      -3.51530593      -4.39919723
H       -4.67056455      -2.91338415      -2.43120775
H        0.66081836      -1.58866668      -2.24921031
H       -0.65268187      -4.57863744      -4.77881680
H        0.40720463      -3.44306977      -3.98379525
H        0.03088689      -0.81466879      -4.74735917
H        0.24346705       0.53304238      -6.78291969
H       -0.65061235      -2.93090586      -9.18372524
H       -0.88585788      -4.29061885      -7.14611621
C       -7.44975400       5.18081047       4.89442041
C       -6.01370190       5.13241618       5.38035603
N       -5.18212151       4.37731777       4.46875522
C       -4.08761914       3.65376436       4.89003620
O       -3.80168901       3.54373867       6.07869713
C       -3.32156057       3.03488744       3.81539188
C       -3.25620475       3.41561931       2.47757290
C       -2.38167409       2.50300237       1.83058995
S       -1.74222999       2.19834978       0.24909930
C       -0.87466534       0.87466534       0.87466534
C       -1.02233777       0.65492789       2.22208367
C       -1.92320848       1.62006863       2.75945329
N       -2.49435170       1.93338441       3.97819714
C       -2.22411259       1.17632508       5.19364659
C       -3.28169170       0.13427359       5.47580293
C       -3.47407120      -0.95877366       4.61495720
C       -4.42434814      -1.94106703       4.90822439
C       -5.18478411      -1.84086465       6.06884619
Br      -6.45649070      -3.17881442       6.47488508
C       -5.01140752      -0.76370073       6.93457389
C       -4.06465687       0.22065820       6.63681792
H       -8.07051092       5.75671405       5.58767044
H       -7.86795506       4.17128645       4.81393254
H       -7.51464488       5.64725240       3.90603877
H       -5.96842680       4.69239457       6.38227236
H       -5.59927259       6.14397911       5.43606783
H       -5.34937946       4.47339880       3.47835894
H       -3.75719325       4.25040899       2.00755423
H       -0.53742066      -0.13737428       2.77701226
H       -2.10620388       1.88377399       6.02015823
H       -1.24885147       0.68535653       5.08545240
H       -2.88595200      -1.06223531       3.70742437
H       -4.55670502      -2.77779114       4.22749638
H       -5.60282345      -0.67980831       7.84222831
H       -3.94174611       1.05957114       7.32127569
C        6.49053742      -6.79948571       4.23496175
C        5.88225813      -5.64141175       5.00280423
N        4.97146501      -4.88713246       4.16959703
C        4.77091748      -3.53296212       4.32754011
O        5.41629899      -2.87197873       5.13584708
C        3.74863758      -2.96718970       3.45601261
C        2.68034829      -3.62126056       2.84778811
C        1.97127265      -2.64567337       2.09832038
S        0.58781116      -2.54184872       1.06001919
C        0.87466534      -0.87466534       0.87466534
C        1.95022948      -0.37923154       1.56988830
C        2.58564775      -1.44380666       2.27327599
N        3.67748390      -1.62842114       3.10002821
C        4.56690027      -0.54072084       3.48646314
C        5.80374291      -0.46684840       2.62117691
C        5.71750431      -0.15935596       1.25339446
C        6.87085631      -0.04930314       0.47134604
C        8.12001391      -0.23929262       1.05345912
Br       9.68039698      -0.07200159       0.00016278
C        8.22740353      -0.54740072       2.40747644
C        7.07268391      -0.66268437       3.18676470
H        7.17491154      -7.36638792       4.87359594
H        7.04982893      -6.43878319       3.36456192
H        5.71448945      -7.48126225       3.87218434
H        6.67157141      -4.98578233       5.38574000
H        5.30815082      -6.01425423       5.85691448
H        4.38527481      -5.39313228       3.52273013
H        2.41820724      -4.66686583       2.93008339
H        2.26585075       0.65576014       1.56696802
H        4.80791159      -0.65439443       4.54783008
H        4.01231010       0.40295269       3.41030298
H        4.75341009       0.00146649       0.77919746
H        6.78036773       0.18883957      -0.58511790
H        9.20028440      -0.69744145       2.86751761
H        7.17119997      -0.90737437       4.24401860
