170
Properties=species:S:1:pos:R:3 pbc="F F F"
C        5.14403037       7.40752135      -7.70314523
C        5.91337966       6.79392273      -6.54888379
N        5.07973992       5.88334864      -5.79481801
C        5.24086401       5.67861918      -4.44164858
O        6.05277504       6.31993579      -3.78112606
C        4.36807550       4.65718659      -3.87628987
C        3.75509414       3.59239412      -4.53162078
C        3.00636223       2.88269241      -3.55592384
S        1.96452688       1.50181965      -3.45304462
C        1.78456936       1.78456936      -1.78456936
C        2.48413085       2.85683555      -1.28809500
C        3.18633364       3.49325389      -2.35285494
N        4.01559163       4.58331095      -2.53674274
C        4.40748683       5.46864392      -1.44766558
C        3.54583395       6.70766068      -1.36798567
C        2.17867190       6.62434657      -1.05694834
C        1.40012499       7.77954349      -0.94154909
C        1.98516624       9.02761082      -1.12970066
C        3.33862010       9.13211548      -1.44125718
C        4.11438865       7.97557305      -1.56188335
H        5.78298911       8.09169661      -8.26992176
H        4.27618044       7.96821249      -7.33849318
H        4.77722652       6.63436727      -8.38605434
H        6.30030626       7.58035876      -5.89214078
H        6.76486562       6.21849446      -6.92567152
H        4.42985926       5.30034844      -6.30064158
H        3.83377768       3.33292159      -5.57816926
H        2.48494041       3.16959820      -0.25223210
H        5.46919893       5.70703883      -1.56361042
H        4.33239680       4.91165662      -0.50531905
H        1.70225429       5.66112333      -0.89747551
H        0.34407592       7.69131217      -0.70073424
H        3.80093606      10.10413453      -1.58988494
H        5.17123182       8.07184772      -1.80922547
C        1.18631557      10.21830793      -0.99674203
C        0.51727812      11.21551675      -0.88538919
Br      -0.56449884      12.82791908      -0.70534105
C       -7.57482504      -5.13508799      -7.54478392
C       -6.50004810      -5.92908724      -6.82705084
N       -5.74984264      -5.08687581      -5.92118812
C       -4.42072594      -5.30809836      -5.63230747
O       -3.77372501      -6.18886991      -6.19124197
C       -3.86236325      -4.41055878      -4.62862994
C       -4.53795424      -3.70455399      -3.63660081
C       -3.56086039      -2.97011418      -2.91400391
S       -3.47322273      -1.85915546      -1.58701296
C       -1.78456936      -1.78456936      -1.78456936
C       -1.27183293      -2.56884918      -2.78837928
C       -2.33900748      -3.24802807      -3.44540692
N       -2.51093954      -4.12635980      -4.49834598
C       -1.40002397      -4.62495441      -5.29881795
C       -1.20604814      -3.83989493      -6.57553722
C       -0.82341765      -2.48873134      -6.54781782
C       -0.60297538      -1.78371229      -7.73452989
C       -0.75698917      -2.42723066      -8.95825789
C       -1.13823631      -3.76589264      -9.00786380
C       -1.36380506      -4.46778740      -7.82025259
H       -8.13940923      -5.78043887      -8.22475938
H       -7.13253309      -4.32084748      -8.12950554
H       -8.27622947      -4.68946905      -6.83194961
H       -5.82515613      -6.39412178      -7.55352789
H       -6.95430328      -6.72553666      -6.22919166
H       -6.24862453      -4.37917394      -5.40305082
H       -5.59961033      -3.71262325      -3.43263495
H       -0.22246581      -2.64246452      -3.04184036
H       -1.56268861      -5.69071429      -5.48644528
H       -0.48596701      -4.56894974      -4.69445571
H       -0.68893254      -1.96801770      -5.60390289
H       -0.30813321      -0.73870656      -7.68928255
H       -1.26064638      -4.27362017      -9.96068898
H       -1.66477094      -5.51368983      -7.87384424
C       -0.51600552      -1.70490327     -10.18045673
C       -0.31418172      -1.09995407     -11.20404827
Br       0.01215030      -0.12180239     -12.85910920
C       -8.36469462       5.85369499       6.03630733
C       -6.89262339       5.98655801       6.37700478
N       -6.07611078       5.22265707       5.45913873
C       -4.88009032       4.64882106       5.83222040
O       -4.47670813       4.68617454       6.99095421
C       -4.15720545       3.99738094       4.74696558
C       -4.25362494       4.24534197       3.38014212
C       -3.35437765       3.35607774       2.73452309
S       -2.83515979       2.95308805       1.13114330
C       -1.78456936       1.78456936       1.78456936
C       -1.78508643       1.68951773       3.15445723
C       -2.72578773       2.61732111       3.68933363
N       -3.21148539       2.99849670       4.92566323
C       -2.75580035       2.39613823       6.17185775
C       -3.67229812       1.29536425       6.65381792
C       -3.83135742       0.10790200       5.92070739
C       -4.64657722      -0.92270976       6.39735011
C       -5.30358922      -0.77588703       7.61477553
C       -5.16130213       0.39459120       8.35609943
C       -4.35019603       1.42647215       7.87517687
H       -8.97427051       6.43734449       6.73299249
H       -8.68434009       4.80712969       6.09141633
H       -8.56675870       6.20993456       5.02095486
H       -6.71142044       5.65606054       7.40532483
H       -6.57919255       7.03229335       6.29754570
H       -6.34233964       5.20240935       4.48610030
H       -4.87739546       4.97887701       2.88859607
H       -1.17374404       1.00518001       3.72784666
H       -2.63469450       3.19131032       6.91384335
H       -1.74996722       1.98826623       6.01113902
H       -3.32151084      -0.03237441       4.97171670
H       -4.75556201      -1.83253944       5.81309976
H       -5.67242575       0.51519141       9.30733837
H       -4.25044816       2.33798085       8.46387600
C       -6.13203849      -1.84331445       8.11264149
C       -6.82586474      -2.73728492       8.52960424
Br      -7.94772312      -4.18275955       9.20379773
C        7.51778973      -7.60119491       5.13571230
C        6.82069304      -6.50991569       5.92557744
N        5.91383106      -5.75899473       5.08508078
C        5.64198027      -4.42442108       5.29473042
O        6.21767483      -3.77404380       6.16211826
C        4.63460338      -3.86484280       4.40210578
C        3.62748769      -4.53710133       3.71452002
C        2.90754514      -3.56016792       2.97726541
S        1.56938037      -3.47001572       1.87999505
C        1.78456936      -1.78456936       1.78456936
C        2.80254821      -1.27441933       2.55209386
C        3.45533201      -2.34130176       3.23580870
N        4.51598129      -2.51525157       4.10441247
C        5.33403237      -1.40787148       4.58189247
C        6.60403264      -1.23663945       3.78080820
C        6.56555259      -0.86853671       2.42587751
C        7.74673195      -0.66896940       1.70551622
C        8.97574717      -0.82946301       2.33726754
C        9.03598789      -1.19656159       3.67944328
C        7.85381881      -1.40127900       4.39674724
H        8.19864497      -8.16617204       5.77979047
H        8.09827102      -7.17433865       4.31027644
H        6.79243391      -8.29950343       4.70571078
H        7.55961464      -5.83805489       6.37513627
H        6.22674799      -6.94878307       6.73350053
H        5.38246613      -6.25972818       4.38865498
H        3.41201627      -5.59628344       3.73656882
H        3.06827826      -0.22717839       2.61131406
H        5.53165021      -1.56092821       5.64726975
H        4.73912772      -0.48785041       4.52239434
H        5.61746174      -0.72932172       1.91406967
H        7.69315316      -0.38509957       0.65786960
H        9.99297635      -1.32394372       4.17803545
H        7.91568380      -1.69135432       5.44526689
C       10.19244229      -0.60993894       1.59898429
C       11.21142446      -0.42608754       0.98067207
Br      12.85903244      -0.12881536      -0.01908651
C       -0.00445707       0.01189536      -1.78238275
H       -0.66409135       0.67374010      -2.43557963
H        0.65740317      -0.63156657      -2.45157240
C       -0.90989263      -0.90692880      -0.91072765
C        0.90977584       0.90977584      -0.90977584
C       -0.00465871       1.77757030       0.00794375
H       -0.66225468       2.44313916      -0.64384735
H        0.64322798       2.43503045       0.67728295
C       -1.78241447       0.00034974      -0.00472694
H       -2.45427497      -0.65498947       0.64260836
H       -2.43311707       0.67328779      -0.65473579
C       -0.91132561       0.90220522       0.91563759
C       -0.01476271      -0.02253852       1.78660255
H       -0.67934791      -0.69751639       2.42135241
H        0.63392994       0.61504881       2.47327442
C        0.01484550      -1.77751727      -0.01636693
H        0.67870853      -2.42144646      -0.68295456
H       -0.62264859      -2.45592969       0.64226336
C        1.78714474       0.01002794       0.00389507
H        2.44202412       0.67113390       0.66197326
H        2.45385902      -0.65136977      -0.64189061
C        0.91606151      -0.90478549       0.90901405
