161
Properties=species:S:1:pos:R:3 pbc="F F F"
C        0.00000000       0.00000000       0.00000000
C        7.97928179       3.65020811      -4.49431121
C        7.51355911       5.09902657      -4.52409138
C        6.11212352       5.26430477      -5.10869444
N        5.10936874       4.61479598      -4.29021134
C        4.35344407       3.55324262      -4.73576506
O        4.43675962       3.13183602      -5.88482258
C        3.48103075       2.97040245      -3.72353577
C        2.96670345       3.58892143      -2.58765196
C        2.18136205       2.62102399      -1.91024559
S        1.21238263       2.49397548      -0.47991343
C        0.87521932       0.87521932      -0.87521932
C        1.44465576       0.41853406      -2.03850240
C        2.21330305       1.46412392      -2.62870638
N        2.99898512       1.66777903      -3.74949543
C        3.19064908       0.64882575      -4.77465031
C        4.42825465      -0.18637855      -4.54344143
C        4.38076881      -1.33292669      -3.73459870
C        5.51874065      -2.12308297      -3.54791474
C        6.71593222      -1.76895068      -4.16440815
C        6.78571243      -0.63263672      -4.96470504
C        5.64574718       0.15286850      -5.15362375
H        9.00707917       3.59367281      -4.12092723
H        7.95635675       3.20845393      -5.49547678
H        7.35190773       3.04262834      -3.83427769
H        8.21864212       5.68542076      -5.12457905
H        7.54300488       5.50456563      -3.50555257
H        6.07951354       4.88736126      -6.13593307
H        5.85296291       6.32800437      -5.13443578
H        5.04300053       4.88770999      -3.32095744
H        3.11362706       4.61491757      -2.27827533
H        1.32344344      -0.58052863      -2.43387105
H        3.20464451       1.12823403      -5.75679596
H        2.30081168       0.00695276      -4.78110548
H        3.45348654      -1.63142317      -3.25213634
H        5.45835627      -3.01211484      -2.92566053
H        7.71519250      -0.35124788      -5.45264062
H        5.71640631       1.02750453      -5.79754317
C        7.88598768      -2.58801192      -3.98080823
C        8.86590912      -3.27397571      -3.82704329
Br      10.45035921      -4.38312113      -3.57841840
C       -7.84957021      -3.31717966      -4.95705123
C       -7.54388460      -4.79929501      -4.79349745
C       -6.11822913      -5.16410274      -5.20279087
N       -5.13588629      -4.53085796      -4.34763181
C       -4.22868454      -3.60357323      -4.81019399
O       -4.15234850      -3.30379387      -5.99727585
C       -3.40156229      -3.00236014      -3.77104654
C       -3.07174165      -3.54087278      -2.53066240
C       -2.25590425      -2.58671541      -1.87001197
S       -1.42399238      -2.40027030      -0.36200886
C       -0.87521932      -0.87521932      -0.87521932
C       -1.27450277      -0.49436535      -2.13282410
C       -2.09085690      -1.51750853      -2.69776793
N       -2.78019618      -1.76398746      -3.87207593
C       -2.75806828      -0.84898293      -5.00707393
C       -3.91394687       0.12389766      -4.99526831
C       -3.82141381       1.34154358      -4.30257059
C       -4.87927533       2.25522804      -4.31952513
C       -6.04158681       1.95527129      -5.02507417
C       -6.15589654       0.75086922      -5.71275342
C       -5.09533680      -0.15865381      -5.69824882
H       -8.89674504      -3.11964587      -4.70528831
H       -7.68044540      -2.99158343      -5.98825863
H       -7.22756031      -2.70582583      -4.29542762
H       -8.24629980      -5.37557231      -5.40676982
H       -7.71721786      -5.08653401      -3.74937121
H       -5.94402867      -4.90640885      -6.25237035
H       -5.97528909      -6.24454492      -5.09556905
H       -5.19514707      -4.70168607      -3.35483484
H       -3.35928522      -4.50762122      -2.13991352
H       -1.00688523       0.43889221      -2.60879284
H       -2.72773932      -1.42888505      -5.93305013
H       -1.80725955      -0.30212380      -4.97948657
H       -2.91899644       1.59835715      -3.75356042
H       -4.78373315       3.19653907      -3.78470788
H       -7.05808581       0.51059741      -6.26909683
H       -5.19734629      -1.08707747      -6.25703025
C       -7.12773137       2.90036185      -5.05141446
C       -8.03737744       3.69187520      -5.07347446
Br      -9.50819821       4.97168534      -5.10914360
C       -2.75037204       6.36816978       7.00525928
C       -4.11048964       5.74363259       7.28255483
C       -4.93872986       5.52919774       6.01719514
N       -4.31606407       4.57450402       5.12380797
C       -3.86461658       4.91094376       3.86689142
O       -4.02335130       6.03297368       3.39709324
C       -3.16841682       3.83556568       3.17098647
C       -3.30875189       2.46507375       3.36945120
C       -2.42152993       1.82417781       2.46692388
S       -1.93936890       0.21938695       2.02751569
C       -0.87521932       0.87521932       0.87521932
C       -0.86602373       2.24586390       0.78980458
C       -1.78238434       2.78313259       1.74061643
N       -2.23905561       4.02182761       2.15537635
C       -1.80988483       5.26946799       1.53477233
C       -0.63682381       5.90215778       2.24633593
C        0.68074476       5.54846833       1.91471724
C        1.76579931       6.15843937       2.55093236
C        1.54130829       7.12351468       3.52918330
C        0.24290120       7.48351461       3.87716733
C       -0.83991320       6.87586676       3.23645948
H       -2.22260302       6.55224646       7.94682974
H       -2.85505113       7.32360650       6.48162984
H       -2.12429230       5.70767243       6.39684903
H       -4.66800215       6.39700438       7.96363541
H       -3.96560303       4.78756842       7.79995163
H       -5.11243653       6.48249969       5.50787166
H       -5.91439728       5.11241985       6.28858593
H       -4.11221658       3.65451790       5.48493350
H       -3.97579257       1.96930534       4.06172206
H       -0.25376570       2.81720619       0.10581399
H       -2.66222530       5.95118005       1.47626915
H       -1.54376804       5.05240348       0.49269841
H        0.87709889       4.80406687       1.14723174
H        2.77811376       5.87732364       2.27269208
H        0.05891078       8.23860764       4.63688837
H       -1.84724700       7.18411469       3.51009232
C        2.65859216       7.75961725       4.17775888
C        3.59431739       8.29235316       4.72094093
Br       5.10730595       9.15374207       5.59922036
C        2.83108133      -6.00271039       7.29000939
C        4.25571336      -5.47862528       7.40233842
C        4.98528887      -5.43885184       6.06098203
N        4.36562918      -4.50812363       5.14062325
C        3.78117028      -4.90343866       3.95784281
O        3.80825413      -6.06897182       3.57619227
C        3.11530791      -3.83069089       3.22897017
C        3.38147324      -2.46612631       3.29567728
C        2.47322918      -1.82472985       2.41467259
S        2.08452882      -0.22437859       1.87736413
C        0.87521932      -0.87521932       0.87521932
C        0.74909195      -2.24229941       0.91030086
C        1.69875259      -2.77946731       1.82791346
N        2.08926462      -4.01603937       2.31095558
C        1.50940533      -5.26724704       1.83747278
C        0.35584001      -5.73664028       2.69283723
C       -0.95306354      -5.29738717       2.43811719
C       -2.02397297      -5.75789532       3.20965007
C       -1.79315311      -6.65753122       4.24701158
C       -0.50235859      -7.10007650       4.52006283
C        0.56575005      -6.64203967       3.74444972
H        2.37415076      -6.06434491       8.28318355
H        2.81312538      -7.00242004       6.84474204
H        2.20928913      -5.34104141       6.67848322
H        4.81630578      -6.12144804       8.09088812
H        4.23325149      -4.47529517       7.84457642
H        5.03729178      -6.44129928       5.62421681
H        6.01103970      -5.08812000       6.21624335
H        4.26814883      -3.54798545       5.43553369
H        4.14366313      -1.97647948       3.88667735
H        0.03597973      -2.81109203       0.32971411
H        2.29619752      -6.02296677       1.77051021
H        1.17190583      -5.11186973       0.80509436
H       -1.15526038      -4.60247810       1.62698199
H       -3.03091977      -5.41297957       2.98984216
H       -0.31396866      -7.80514810       5.32540579
H        1.56518152      -7.01383303       3.96243945
C       -2.89708063      -7.14019790       5.03566671
C       -3.82161993      -7.54443125       5.69616538
Br      -5.31652177      -8.19804238       6.76413586
