194
Properties=species:S:1:pos:R:3 pbc="F F F"
C        1.79163357       1.79163357      -1.79163357
C        3.15796743       1.54328735      -1.87003851
C        3.96029820       2.34014623      -2.69040350
C        3.41102831       3.39780859      -3.43291040
C        2.02942652       3.63074206      -3.33878034
C        1.22285331       2.83156756      -2.52253367
C        4.25894863       4.22750366      -4.37200444
N        5.32758307       4.94693279      -3.68735628
C        6.65614395       4.57330578      -3.50747023
C        7.27923297       5.58930201      -2.78548086
C        6.31897781       6.61901879      -2.60506802
S        6.21376142       8.20303927      -1.91044781
C        4.60490924       8.31277376      -2.45249237
Br       3.56606428       9.85550614      -2.18140776
C        4.12118430       7.20199573      -3.09880898
C        5.15068738       6.21937525      -3.17696115
C        7.24177116       3.33447311      -4.01324091
O        6.63361637       2.53568374      -4.72110958
N        8.54341244       3.09508164      -3.64294775
C        9.20852408       1.84360406      -3.96270476
C       10.72814024       2.02675980      -4.03187497
H       10.97187569       2.81901086      -4.74881589
C       11.45698319       0.73696545      -4.38384510
C       11.85094483       0.19094815      -3.03434329
C       12.14251362       1.45621798      -2.26173959
O       11.20755169       2.43721073      -2.73084881
H        3.60920656       0.72887512      -1.30958579
H        5.02098410       2.11019929      -2.75378026
H        1.56320782       4.42929586      -3.91218425
H        0.15428872       3.02240880      -2.47123809
H        3.64416785       4.98128660      -4.88024883
H        4.67325202       3.61009140      -5.17068940
H        8.30712388       5.62676795      -2.45395285
H        3.12009409       7.10388638      -3.49717142
H        8.97289569       3.65586084      -2.91950234
H        8.82714898       1.45913521      -4.91475481
H        8.93275568       1.13931671      -3.16975652
H       12.36158206       0.97433869      -4.95706136
H       10.86204111       0.03842245      -4.97925158
H       11.00221749      -0.33751218      -2.58491028
H       12.70254033      -0.49331787      -3.07116066
H       12.03315328       1.32742381      -1.18171775
H       13.15200096       1.82629618      -2.47157216
C       -1.79163357      -1.79163357      -1.79163357
C       -1.55414464      -3.16060282      -1.85654583
C       -2.37242527      -3.96813328      -2.65028938
C       -3.42885635      -3.41856453      -3.39432642
C       -3.65060729      -2.03424840      -3.31409322
C       -2.83651308      -1.22405373      -2.51638772
C       -4.35959994      -4.29101234      -4.20784446
N       -3.67338650      -5.01845538      -5.27003027
C       -3.16730879      -6.31486652      -5.25474465
C       -2.59725652      -6.55297422      -6.50378510
C       -2.84270681      -5.40235418      -7.29800363
S       -2.56623406      -4.84554055      -8.91547388
C       -3.40919074      -3.41466328      -8.54632136
Br      -3.70161649      -2.07233159      -9.82903010
C       -3.85904202      -3.30974965      -7.25319733
C       -3.51396075      -4.49400254      -6.53906050
C       -3.25388843      -7.22221085      -4.11338590
O       -3.85801040      -6.95458452      -3.07781477
N       -2.60215028      -8.42376328      -4.25552826
C       -2.49338344      -9.36624493      -3.15520454
C       -2.31849138     -10.79895220      -3.66933142
H       -3.14112774     -11.05006307      -4.34851163
C       -2.21971538     -11.81689085      -2.54118751
C       -0.73129623     -11.98210344      -2.36283661
C       -0.23250956     -11.84548306      -3.78247857
O       -1.08207384     -10.87861952      -4.41491787
H       -0.74617939      -3.61340682      -1.28808125
H       -2.18184920      -5.03837566      -2.66473879
H       -4.47005580      -1.57310147      -3.86153065
H       -3.03103022      -0.15638140      -2.46052399
H       -5.13416666      -3.68127640      -4.69026021
H       -4.90179344      -4.98678666      -3.56545271
H       -2.09773727      -7.45052280      -6.83958461
H       -4.40331906      -2.46458580      -6.85324703
H       -1.96131794      -8.56157956      -5.02536138
H       -3.38436038      -9.29445859      -2.52222004
H       -1.62453858      -9.05053351      -2.56675681
H       -2.65330652     -12.76911767      -2.87055793
H       -2.73723314     -11.51712301      -1.62535899
H       -0.33800918     -11.16618668      -1.74541973
H       -0.44906868     -12.93128567      -1.90002877
H        0.80807991     -11.51480279      -3.83557196
H       -0.33035916     -12.78889239      -4.33061775
C       -1.79163357       1.79163357       1.79163357
C       -1.20719054       2.62110045       2.74300229
C       -2.01420949       3.43966047       3.53697797
C       -3.41141445       3.43276173       3.39757112
C       -3.98024222       2.58770345       2.43100325
C       -3.17475101       1.77104021       1.63116332
C       -4.29064156       4.35980246       4.20801272
N       -4.19345192       4.12400424       5.64441599
C       -3.38948363       4.76515596       6.58228036
C       -3.65064893       4.18250961       7.82085730
C       -4.68727161       3.23328565       7.62250736
S       -5.64589198       2.12908128       8.55227523
C       -6.50686539       1.72022673       7.14308325
Br      -7.93550982       0.49914246       7.16832590
C       -6.08791821       2.34160347       5.99246732
C       -5.01617685       3.22874859       6.30209834
C       -2.46470646       5.85244227       6.27233645
O       -2.36680678       6.36385937       5.15974355
N       -1.68120388       6.28494323       7.31529472
C       -0.62774477       7.26636130       7.12072684
C       -0.33878765       8.03184412       8.41614324
H       -1.26321588       8.48671384       8.78977273
C        0.74906817       9.08325524       8.24360667
C        1.99201339       8.36397335       8.70427632
C        1.45267142       7.49597534       9.81716727
O        0.13550645       7.09800087       9.41311680
H       -0.12824186       2.64978011       2.86964549
H       -1.53183322       4.09712632       4.25600411
H       -5.05759278       2.56682304       2.28027212
H       -3.63415507       1.13146663       0.88231391
H       -5.34513561       4.22536504       3.93520263
H       -4.06750531       5.40390588       3.98262164
H       -3.19471486       4.42226398       8.77086584
H       -6.52038683       2.18803633       5.01272873
H       -1.63489073       5.74468257       8.16868557
H       -0.91652047       7.96039888       6.32411967
H        0.25420778       6.70679793       6.78923875
H        0.54927446       9.92782613       8.91443045
H        0.82702124       9.47961755       7.22711883
H        2.38125141       7.73763392       7.89323307
H        2.78900405       9.03550724       9.03387992
H        2.06733952       6.61050032       9.99913404
H        1.36179413       8.05947883      10.75218460
C        1.79163357      -1.79163357       1.79163357
C        3.13788188      -1.48103801       1.95237339
C        3.93904761      -2.27883955       2.77296077
C        3.40927579      -3.39896902       3.43350249
C        2.04777448      -3.69412864       3.25704580
C        1.24205608      -2.89443721       2.44046124
C        4.25179227      -4.23340591       4.37325856
N        5.38830757      -4.86341847       3.71014611
C        6.70307571      -4.41640602       3.61743823
C        7.41227516      -5.36213289       2.87960779
C        6.51631753      -6.42698191       2.59976517
S        6.52696793      -7.97637459       1.82390597
C        4.90128945      -8.19254126       2.27634467
Br       3.95780330      -9.76828761       1.87688728
C        4.32992613      -7.14154960       2.95051327
C        5.30239035      -6.11501965       3.12961379
C        7.19864836      -3.17807407       4.21276274
O        6.51622377      -2.44754615       4.92663977
N        8.50280362      -2.85646952       3.92216869
C        9.08611838      -1.59205162       4.33666290
C       10.60793736      -1.70388435       4.47495330
H       10.85674814      -2.51911994       5.16383436
C       11.25127122      -0.39978444       4.92673808
C       11.68220611       0.23364980       3.62767997
C       12.07604085      -0.97434953       2.81008081
O       11.17099307      -2.02281146       3.18180669
H        3.57348299      -0.61772093       1.45646354
H        4.98210448      -2.00079170       2.90206748
H        1.59578065      -4.54302803       3.76587925
H        0.18853471      -3.13448634       2.32491456
H        3.65249733      -5.04156748       4.81163846
H        4.59413416      -3.63839945       5.22149921
H        8.45573282      -5.33208896       2.60002290
H        3.30680490      -7.11323311       3.30111389
H        8.99551308      -3.35753722       3.19520858
H        8.63928019      -1.27626623       5.28549258
H        8.81360849      -0.86221148       3.56600894
H       12.13773513      -0.62177767       5.53346932
H       10.59269670       0.23718984       5.52420828
H       10.83041832       0.74235508       3.16155235
H       12.49460317       0.95599570       3.74177565
H       12.01321721      -0.79561235       1.73346528
H       13.09175924      -1.30485987       3.05325020
C       -0.00445707       0.01189536      -1.78238275
H       -0.66409135       0.67374010      -2.43557963
H        0.65740317      -0.63156657      -2.45157240
C       -0.90989263      -0.90692880      -0.91072765
C        0.90977584       0.90977584      -0.90977584
C       -0.00465871       1.77757030       0.00794375
H       -0.66225468       2.44313916      -0.64384735
H        0.64322798       2.43503045       0.67728295
C       -1.78241447       0.00034974      -0.00472694
H       -2.45427497      -0.65498947       0.64260836
H       -2.43311707       0.67328779      -0.65473579
C       -0.91132561       0.90220522       0.91563759
C       -0.01476271      -0.02253852       1.78660255
H       -0.67934791      -0.69751639       2.42135241
H        0.63392994       0.61504881       2.47327442
C        0.01484550      -1.77751727      -0.01636693
H        0.67870853      -2.42144646      -0.68295456
H       -0.62264859      -2.45592969       0.64226336
C        1.78714474       0.01002794       0.00389507
H        2.44202412       0.67113390       0.66197326
H        2.45385902      -0.65136977      -0.64189061
C        0.91606151      -0.90478549       0.90901405
