181
Properties=species:S:1:pos:R:3 pbc="F F F"
C        0.00000000       0.00000000       0.00000000
C        0.88172955       0.88172955      -0.88172955
C        2.24806341       0.63338332      -0.96013448
C        3.05039417       1.43024221      -1.78049948
C        2.50112428       2.48790457      -2.52300638
C        1.11952249       2.72083803      -2.42887632
C        0.31294928       1.92166353      -1.61262965
C        3.34904461       3.31759964      -3.46210042
N        4.41767905       4.03702877      -2.77745225
C        5.74623992       3.66340175      -2.59756621
C        6.36932894       4.67939799      -1.87557684
C        5.40907378       5.70911476      -1.69516400
S        5.30385739       7.29313524      -1.00054378
C        3.69500521       7.40286974      -1.54258835
C        3.21128027       6.29209170      -2.18890495
C        4.24078336       5.30947122      -2.26705713
C        6.33186713       2.42456909      -3.10333688
O        5.72371234       1.62577972      -3.81120556
N        7.63350841       2.18517761      -2.73304373
C        8.29862006       0.93370003      -3.05280074
C        9.81823621       1.11685578      -3.12197094
H       10.06197166       1.90910684      -3.83891187
C       10.54707917      -0.17293857      -3.47394108
C       10.94104081      -0.71895587      -2.12443927
C       11.23260959       0.54631396      -1.35183557
O       10.29764767       1.52730670      -1.82094478
H        2.69930254      -0.18102891      -0.39968176
H        4.11108007       1.20029527      -1.84387623
H        0.65330379       3.51939184      -3.00228023
H       -0.75561530       2.11250478      -1.56133406
H        2.73426382       4.07138258      -3.97034480
H        3.76334800       2.70018737      -4.26078538
H        7.39721986       4.71686393      -1.54404883
H        2.21019007       6.19398235      -2.58726740
H        8.06299167       2.74595681      -2.00959832
H        7.91724496       0.54923119      -4.00485079
H        8.02285165       0.22941268      -2.25985249
H       11.45167804       0.06443467      -4.04715734
H        9.95213708      -0.87148157      -4.06934756
H       10.09231346      -1.24741621      -1.67500626
H       11.79263630      -1.40322190      -2.16125663
H       11.12324926       0.41751978      -0.27181373
H       12.24209694       0.91639216      -1.56166813
C        2.89910375       8.58481989      -1.33489938
C        2.23253628       9.57470314      -1.16095986
Br       1.15475305      11.17526064      -0.87971438
C       -0.88172955      -0.88172955      -0.88172955
C       -1.08837017      -2.21391866      -0.53929238
C       -1.90903418      -3.01446296      -1.33763872
C       -2.52386002      -2.49842599      -2.48974922
C       -2.30150785      -1.15099136      -2.81673763
C       -1.48476784      -0.34573637      -2.01673825
C       -3.46376174      -3.33807579      -3.32690714
N       -2.81577202      -4.50932895      -3.90705910
C       -2.77198354      -5.81313691      -3.42208743
C       -2.02882699      -6.56824254      -4.32723424
C       -1.69525982      -5.71029579      -5.40779693
S       -0.87820410      -5.78526952      -6.93406280
C       -1.27903983      -4.15457149      -7.20685199
C       -1.96529027      -3.53598753      -6.19099913
C       -2.19928705      -4.47418889      -5.14383577
C       -3.41432651      -6.25759023      -2.18785637
O       -4.12845041      -5.53589801      -1.49634920
N       -3.16909956      -7.55966943      -1.82296076
C       -3.63390769      -8.09598145      -0.55523169
C       -3.81154433      -9.61601179      -0.62950681
H       -4.48470690      -9.86868430      -1.45659916
C       -4.31636824     -10.21017660       0.67846317
C       -3.04753208     -10.65838259       1.35939047
C       -2.20873895     -11.10785197       0.18583180
O       -2.52643710     -10.22266736      -0.89679469
H       -0.62844683      -2.63855497       0.34904641
H       -2.07471668      -4.04545862      -1.03507628
H       -2.77427890      -0.70922122      -3.69147574
H       -1.33337499       0.69714507      -2.28199362
H       -3.86312658      -2.74989251      -4.16297211
H       -4.33707756      -3.64050665      -2.74673654
H       -1.77940326      -7.61766325      -4.26106610
H       -2.28782873      -2.50332957      -6.20028151
H       -2.44283804      -8.08573939      -2.28996937
H       -4.57811872      -7.61489482      -0.27831340
H       -2.87605320      -7.82423302       0.18816939
H       -4.94135929     -11.08568648       0.46377572
H       -4.91229856      -9.51809004       1.28038553
H       -2.57179341      -9.80569872       1.85758861
H       -3.20384247     -11.44689656       2.10006799
H       -1.13604107     -11.06932742       0.39278573
H       -2.47110539     -12.12542260      -0.12362924
C       -0.92026033      -3.47429495      -8.42426774
C       -0.61978250      -2.90456336      -9.44385343
Br      -0.13393526      -1.98335555     -11.09243726
C       -0.88172955       0.88172955       0.88172955
C       -0.30577894       1.89512558       1.64067669
C       -1.11589766       2.71174156       2.43349664
C       -2.50602582       2.52064684       2.48536257
C       -3.06631508       1.49171506       1.71120669
C       -2.25864956       0.67599422       0.91259868
C       -3.39984231       3.43764705       3.29125531
N       -3.10229406       3.41066190       4.71920411
C       -2.28661412       4.26298617       5.45760759
C       -2.31832697       3.82567779       6.78029901
C       -3.23377992       2.74232286       6.83724976
S       -3.91796977       1.66769250       8.01187415
C       -4.87685853       0.97365916       6.78994561
C       -4.68471887       1.47961031       5.52794775
C       -3.71317150       2.52104279       5.58309743
C       -1.56000751       5.40044956       4.89931603
O       -1.66439224       5.76531075       3.73099463
N       -0.72390669       6.05923833       5.76858474
C        0.15722322       7.12333640       5.31900765
C        0.49185937       8.08512014       6.46380217
H       -0.43457709       8.47341746       6.90199582
C        1.40001056       9.22511848       6.02297375
C        2.77425375       8.72680804       6.39396991
C        2.49242102       7.95889116       7.66428898
O        1.20235680       7.35690102       7.49135494
H        0.76680936       2.06822405       1.61654070
H       -0.64471710       3.51253939       2.99799509
H       -4.14123545       1.32323418       1.71050622
H       -2.71317375      -0.10849698       0.31354676
H       -4.45144458       3.14371578       3.18083085
H       -3.34766194       4.46089137       2.91576744
H       -1.78953162       4.24351879       7.62508220
H       -5.20556043       1.14533411       4.64054528
H       -0.50447170       5.64817393       6.66590117
H       -0.31472685       7.66460654       4.49199354
H        1.06096712       6.63268759       4.94039636
H        1.16917388      10.12267532       6.60976862
H        1.30288572       9.48737273       4.96551606
H        3.14545532       8.04750018       5.61785865
H        3.50691464       9.52626633       6.53131935
H        3.23794453       7.18511020       7.86541710
H        2.43789172       8.62842841       8.52962054
C       -5.82534728      -0.07375713       7.06723287
C       -6.61970661      -0.95096827       7.29946094
Br      -7.90411845      -2.36934448       7.67495410
C        0.88172955      -0.88172955       0.88172955
C        0.77522415      -0.80017906       2.26617800
C        1.57039253      -1.61976620       3.07097713
C        2.48592264      -2.52135543       2.50475716
C        2.57706112      -2.58717003       1.10500569
C        1.77874641      -1.77182027       0.29667579
C        3.30697184      -3.45753117       3.36424165
N        4.20002791      -2.75381459       4.27831757
C        3.99053839      -2.40689097       5.60977852
C        5.13278075      -1.74128344       6.05023958
C        6.06595622      -1.76650369       4.98089264
S        7.68932630      -1.25961393       4.64859619
C        7.57247615      -1.96369505       3.10429210
C        6.35876105      -2.53073221       2.80278367
C        5.48953989      -2.40267639       3.92509543
C        2.77865299      -2.71744558       6.36367453
O        1.85430450      -3.39097453       5.91541858
N        2.71754981      -2.19915369       7.63502626
C        1.51972486      -2.31658936       8.44880660
C        1.85754579      -2.25741253       9.94210461
H        2.59815332      -3.02831547      10.18352158
C        0.62553351      -2.39642703      10.82612112
C        0.25841058      -0.96426882      11.12384481
C        1.61658334      -0.30750198      11.20667379
O        2.44130567      -0.96771897      10.23687451
H        0.07220197      -0.11436959       2.73138383
H        1.45070447      -1.55495028       4.14959683
H        3.26152671      -3.28554222       0.62790692
H        1.85772274      -1.84515158      -0.78465078
H        3.93748948      -4.10101925       2.73748247
H        2.66316148      -4.14130133       3.91985794
H        5.31244556      -1.31763515       7.02805190
H        6.11549279      -3.01139673       1.86455030
H        3.38870354      -1.50195452       7.92788874
H        1.00603582      -3.25426966       8.21102146
H        0.87008038      -1.48303689       8.15899956
H        0.90205268      -2.90143167      11.75978569
H       -0.18730279      -2.96816945      10.36913641
H       -0.31212604      -0.54504828      10.28698128
H       -0.33070824      -0.84461964      12.03675964
H        1.58208279       0.76438983      10.99488980
H        2.07090562      -0.45704171      12.19220989
C        8.67658782      -1.96235406       2.17988114
C        9.60128135      -1.96123097       1.40568697
Br      11.09643257      -1.95941503       0.15388047
