186
Properties=species:S:1:pos:R:3 pbc="F F F"
C        1.79174806       1.79174806      -1.79174806
C        2.21969752       3.03097594      -1.32132055
C        3.04019114       3.83051418      -2.12082288
C        3.44862108       3.39176668      -3.39080432
C        2.98515096       2.15151441      -3.85788988
C        2.16480612       1.35110771      -3.05908879
C        4.38701965       4.23410938      -4.22928172
N        5.64675329       3.54137761      -4.48577630
C        6.15506384       3.06515030      -5.69009789
C        7.32070841       2.36560663      -5.39105114
C        7.56793855       2.52989486      -4.00480958
S        8.74411745       2.06686429      -2.82068790
C        7.83366760       2.87021666      -1.63043029
C        6.68593456       3.47905399      -2.07459906
C        6.54869366       3.25754828      -3.47582388
C        5.48464630       3.20112947      -6.98387626
O        4.25714810       3.25779485      -7.06384859
N        6.25111698       3.26779800      -8.13891862
C        5.60666428       3.36420460      -9.43877058
C        6.73164808       3.13869726     -10.43602618
C        7.92344905       3.77537577      -9.73447863
C        7.69720335       3.39741040      -8.27363916
H        1.92716184       3.37909289      -0.33403798
H        3.37111966       4.79267043      -1.73568103
H        3.27398920       1.79485559      -4.84588791
H        1.83079368       0.38702789      -3.43276244
H        4.64726752       5.16687080      -3.71356465
H        3.90660556       4.52253926      -5.16484119
H        7.93118322       1.78745209      -6.06791067
H        5.99257234       4.02226522      -1.44729030
H        5.19174735       4.37528607      -9.53378026
H        4.79688349       2.63633191      -9.53553472
H        6.90808278       2.06370097     -10.56628473
H        6.52599368       3.57562831     -11.41665369
H        8.88390395       3.41724474     -10.11615311
H        7.88945250       4.86421499      -9.85362897
H        8.14826808       2.41908758      -8.08251503
H        8.09825892       4.13918536      -7.57968129
C        8.23863488       2.90063102      -0.24888171
C        8.57779498       2.92610304       0.90816522
Br       9.12618817       2.96728915       2.77901225
C       -1.79174806      -1.79174806      -1.79174806
C       -2.03542382      -1.42372144      -3.11284876
C       -2.82806554      -2.23870106      -3.92476160
C       -3.37241740      -3.43315070      -3.42562398
C       -3.13731645      -3.77333153      -2.08390728
C       -2.34463102      -2.95916010      -1.27121149
C       -4.18041696      -4.34409083      -4.32590297
N       -3.54800390      -5.65205122      -4.47385209
C       -3.98905013      -6.89375160      -4.02751032
C       -2.97354119      -7.80677173      -4.29705328
C       -1.96653136      -7.11751124      -5.01860038
S       -0.43402214      -7.43860741      -5.75904010
C       -0.32818159      -5.80122844      -6.20490452
C       -1.39138810      -5.01677824      -5.83142128
C       -2.33963884      -5.81479541      -5.12763158
C       -5.24371674      -7.11776080      -3.30817449
O       -5.73858075      -6.24061655      -2.59959424
N       -5.88405203      -8.34289659      -3.43088497
C       -7.11134170      -8.60262143      -2.69567634
C       -7.34534205     -10.09499648      -2.86603299
C       -6.81257746     -10.35178991      -4.26893608
C       -5.58584011      -9.44692359      -4.33548921
H       -1.60820685      -0.51128125      -3.52080461
H       -3.00301827      -1.94023496      -4.95621789
H       -3.56123414      -4.68626591      -1.66723265
H       -2.16109232      -3.24921550      -0.24027618
H       -4.26485096      -3.92607351      -5.33677850
H       -5.19840963      -4.44698575      -3.94859064
H       -2.93175669      -8.84609172      -4.00869757
H       -1.47629386      -3.95698600      -6.02884800
H       -7.91397135      -8.02104054      -3.16580179
H       -7.01880557      -8.30081274      -1.64913180
H       -6.74941050     -10.65445891      -2.13419907
H       -8.39412189     -10.37853494      -2.74561884
H       -6.56804888     -11.40307364      -4.44617928
H       -7.55401284     -10.04003277      -5.01325085
H       -4.71976501      -9.98773399      -3.94237169
H       -5.37991685      -9.09026383      -5.34694489
C        0.80605817      -5.27501713      -6.91918865
C        1.75598398      -4.83431516      -7.51740161
Br       3.29193365      -4.12173735      -8.48466137
C       -1.79174806       1.79174806       1.79174806
C       -2.04158453       3.11060045       1.41980903
C       -2.86184613       3.91243361       2.21724847
C       -3.44789700       3.39807822       3.38521685
C       -3.16266194       2.07465762       3.75723570
C       -2.34270969       1.27191267       2.96038026
C       -4.38482737       4.25130481       4.21427857
N       -5.72710275       3.67860509       4.26819936
C       -6.40845774       3.14456431       5.35728999
C       -7.59759280       2.60953775       4.87023564
C       -7.67437627       2.93556202       3.49270469
S       -8.75386450       2.72277140       2.15503374
C       -7.64407619       3.53501958       1.15521878
C       -6.49745721       3.96799682       1.77413360
C       -6.53673781       3.59592945       3.14939856
C       -5.87341807       3.07836936       6.71786460
O       -4.66244621       2.99232207       6.92402326
N       -6.75128063       3.11439592       7.79215705
C       -6.24648366       3.01130027       9.15185553
C       -7.49047162       2.81306896      10.00283093
C       -8.52990086       3.64221083       9.26119176
C       -8.18359604       3.38745622       7.79720065
H       -1.61000193       3.52014951       0.51014127
H       -3.05232408       4.93822408       1.90892296
H       -3.59150662       1.65618492       4.66704116
H       -2.14811679       0.24501151       3.25745571
H       -4.49401041       5.25314835       3.78054421
H       -3.98354285       4.39194784       5.21849533
H       -8.33236013       2.03778485       5.41640101
H       -5.68956341       4.49124453       1.28131992
H       -5.74691983       3.95665220       9.39724165
H       -5.52776496       2.19327672       9.24770843
H       -7.78507429       1.75624077       9.99675343
H       -7.35126252       3.12620313      11.04081003
H       -9.55689786       3.35541960       9.50498435
H       -8.40209476       4.70374924       9.50145246
H       -8.70517905       2.48792251       7.45676913
H       -8.43136896       4.23333863       7.15241798
C       -7.89057439       3.74541298      -0.24783976
C       -8.09701662       3.92161745      -1.42290128
Br      -8.43081626       4.20652518      -3.32287639
C        1.79174806      -1.79174806       1.79174806
C        1.87087335      -1.54144804       3.15967262
C        2.66402246      -2.35820628       3.96929947
C        3.37372075      -3.43807060       3.41940073
C        3.30213374      -3.65785608       2.03456543
C        2.50909864      -2.84182103       1.22408295
C        4.18373270      -4.35756712       4.30911094
N        3.67926699      -5.72736978       4.26727043
C        4.28661894      -6.86919074       3.75450236
C        3.35046000      -7.89649912       3.83040707
C        2.21415734      -7.38334384       4.50514181
S        0.66050733      -7.92189631       5.04926600
C        0.34408476      -6.35677438       5.63345540
C        1.35055910      -5.44151827       5.44751025
C        2.43829012      -6.06971755       4.77405816
C        5.61969644      -6.89865209       3.15130349
O        6.08525465      -5.91021150       2.58332540
N        6.36925102      -8.06436946       3.22421312
C        7.68041367      -8.13011916       2.59910663
C        8.05086409      -9.60352737       2.65198006
C        7.41828788     -10.05326348       3.96175209
C        6.10353836      -9.27933056       3.98538398
H        1.31495745      -0.72037306       3.60496220
H        2.70949815      -2.15320107       5.03677190
H        3.85565237      -4.47882604       1.58025429
H        2.45420040      -3.03935807       0.15702555
H        4.12911512      -4.04054768       5.35804016
H        5.23780276      -4.32478159       4.03140167
H        3.44391427      -8.89962742       3.44300429
H        1.30621400      -4.40464354       5.75127031
H        8.37072748      -7.52766666       3.20241954
H        7.65572026      -7.73144941       1.58158044
H        7.58748697     -10.13754283       1.81303868
H        9.13003707      -9.77335721       2.61488140
H        7.26853094     -11.13554349       4.01322737
H        8.05025105      -9.75215613       4.80488928
H        5.33894750      -9.85535285       3.45557034
H        5.76772480      -9.05037818       4.99902259
C       -0.90060966      -6.01625426       6.27250301
C       -1.94304124      -5.73106866       6.80770537
Br      -3.62856494      -5.26994766       7.67308234
C       -0.00445707       0.01189536      -1.78238275
H       -0.66409135       0.67374010      -2.43557963
H        0.65740317      -0.63156657      -2.45157240
C       -0.90989263      -0.90692880      -0.91072765
C        0.90977584       0.90977584      -0.90977584
C       -0.00465871       1.77757030       0.00794375
H       -0.66225468       2.44313916      -0.64384735
H        0.64322798       2.43503045       0.67728295
C       -1.78241447       0.00034974      -0.00472694
H       -2.45427497      -0.65498947       0.64260836
H       -2.43311707       0.67328779      -0.65473579
C       -0.91132561       0.90220522       0.91563759
C       -0.01476271      -0.02253852       1.78660255
H       -0.67934791      -0.69751639       2.42135241
H        0.63392994       0.61504881       2.47327442
C        0.01484550      -1.77751727      -0.01636693
H        0.67870853      -2.42144646      -0.68295456
H       -0.62264859      -2.45592969       0.64226336
C        1.78714474       0.01002794       0.00389507
H        2.44202412       0.67113390       0.66197326
H        2.45385902      -0.65136977      -0.64189061
C        0.91606151      -0.90478549       0.90901405
