157
Properties=species:S:1:pos:R:3 pbc="F F F"
C        0.00000000       0.00000000       0.00000000
C        0.88184403       0.88184403      -0.88184403
C        1.30979349       2.12107192      -0.41141653
C        2.13028712       2.92061016      -1.21091885
C        2.53871706       2.48186265      -2.48090030
C        2.07524693       1.24161039      -2.94798586
C        1.25490209       0.44120368      -2.14918477
C        3.47711563       3.32420536      -3.31937770
N        4.73684927       2.63147359      -3.57587227
C        5.24515982       2.15524628      -4.78019387
C        6.41080439       1.45570261      -4.48114712
C        6.65803453       1.61999083      -3.09490555
S        7.83421343       1.15696027      -1.91078388
C        6.92376358       1.96031264      -0.72052626
Br       7.45221451       2.00000102       1.08228764
C        5.77603053       2.56914997      -1.16469504
C        5.63878964       2.34764426      -2.56591985
C        4.57474227       2.29122545      -6.07397224
O        3.34724407       2.34789083      -6.15394457
N        5.34121296       2.35789397      -7.22901460
C        4.69676025       2.45430058      -8.52886656
C        5.82174406       2.22879323      -9.52612215
C        7.01354502       2.86547175      -8.82457461
C        6.78729933       2.48750638      -7.36373513
H        1.01725782       2.46918886       0.57586604
H        2.46121564       3.88276640      -0.82577701
H        2.36408517       0.88495157      -3.93598388
H        0.92088966      -0.52287614      -2.52285842
H        3.73736349       4.25696678      -2.80366063
H        2.99670153       3.61263524      -4.25493717
H        7.02127920       0.87754806      -5.15800665
H        5.08266832       3.11236119      -0.53738627
H        4.28184332       3.46538204      -8.62387624
H        3.88697946       1.72642788      -8.62563069
H        5.99817875       1.15379695      -9.65638071
H        5.61608965       2.66572429     -10.50674966
H        7.97399993       2.50734072      -9.20624909
H        6.97954848       3.95431096      -8.94372495
H        7.23836405       1.50918356      -7.17261101
H        7.18835490       3.22928134      -6.66977727
C       -0.88184403      -0.88184403      -0.88184403
C       -1.36822142      -0.38519370      -2.08886682
C       -2.16085042      -1.19720185      -2.90376387
C       -2.46260128      -2.51506155      -2.52381718
C       -1.98515609      -2.98841921      -1.29126788
C       -1.19226032      -2.17729880      -0.47573142
C       -3.27106637      -3.41185393      -3.43777838
N       -2.50262520      -4.57860643      -3.86296351
C       -2.70494275      -5.92025965      -3.55539757
C       -1.63115587      -6.62628416      -4.09021409
C       -0.84356251      -5.70447804      -4.82489036
S        0.58826497      -5.69084643      -5.79937612
C        0.41044137      -4.01216468      -6.00287917
Br       1.63013436      -2.99392903      -7.00613322
C       -0.67756783      -3.45291794      -5.37938978
C       -1.39603955      -4.47009342      -4.68622079
C       -3.79640115      -6.42329675      -2.72024206
O       -4.28905728      -5.73125274      -1.82876946
N       -4.28207574      -7.70436220      -2.94168358
C       -5.33964001      -8.24033799      -2.09994940
C       -5.39940307      -9.71567151      -2.46158487
C       -5.05560077      -9.70331260      -3.94467801
C       -3.98202191      -8.62276170      -4.03375722
H       -1.13058287       0.62672706      -2.40672482
H       -2.52705788      -0.79622659      -3.84647458
H       -2.21818082      -4.00146670      -0.96537311
H       -0.81881898      -2.56866839       0.46661544
H       -3.56111288      -2.88276304      -4.35411498
H       -4.19810730      -3.71573852      -2.95042811
H       -1.41070630      -7.67606790      -3.97005971
H       -0.92921875      -2.40148119      -5.40171584
H       -6.27315711      -7.73016178      -2.36778271
H       -5.13044111      -8.06755710      -1.04103983
H       -4.63179680     -10.26962173      -1.90693788
H       -6.37176547     -10.16759749      -2.24920064
H       -4.70522759     -10.67329517      -4.30906698
H       -5.93525578      -9.41241024      -4.52991837
H       -3.00329925      -9.07333537      -3.84352400
H       -3.97962496      -8.10987593      -4.99791261
C       -0.88184403       0.88184403       0.88184403
C       -1.06915932       2.22189431       0.55122830
C       -1.88922914       3.02458525       1.34800174
C       -2.53743729       2.49052895       2.47351376
C       -2.31494196       1.14457398       2.80532725
C       -1.49523642       0.34096292       2.00909120
C       -3.47333728       3.34780512       3.29955628
N       -4.83668404       2.82473768       3.28277341
C       -5.57779684       2.27750720       4.32529593
C       -6.76636438       1.80599314       3.77529659
C       -6.77901035       2.18471046       2.40921010
S       -7.81413389       2.06185787       1.02596581
C       -6.63841323       2.86743855       0.09875069
Br      -6.88031559       3.22055216      -1.73093986
C       -5.50101576       3.23384480       0.77501498
C       -5.60586681       2.81362387       2.13286307
C       -5.09741055       2.14153276       5.70099664
O       -3.89905412       2.00224895       5.94777640
N       -6.01340929       2.17155938       6.74315285
C       -5.56453648       1.99991193       8.11547898
C       -6.84624483       1.81800706       8.91240756
C       -7.82592704       2.71239362       8.16527072
C       -7.43397742       2.49827350       6.70628992
H       -0.58880517       2.64771601      -0.32594054
H       -2.03036354       4.06741198       1.07198352
H       -2.79289263       0.70973232       3.68239568
H       -1.34960743      -0.70271843       2.27398294
H       -3.52941556       4.36821444       2.90036089
H       -3.10548939       3.43644163       4.32234292
H       -7.54164049       1.24292443       4.27226899
H       -4.65650263       3.74376176       0.33215139
H       -5.04047526       2.91609885       8.41452749
H       -4.88027206       1.15231893       8.20644705
H       -7.17875181       0.77401251       8.85559208
H       -6.73509743       2.08758491       9.96588126
H       -8.87119133       2.45598124       8.36041716
H       -7.66867844       3.75886490       8.45004105
H       -7.97475882       1.63214114       6.31325866
H       -7.62615329       3.37587986       6.08538035
C        0.88184403      -0.88184403       0.88184403
C        1.25970474      -0.43628564       2.14629155
C        2.05223454      -1.24967204       2.95990956
C        2.46227535      -2.51885368       2.52035098
C        2.09335407      -2.93899565       1.23249347
C        1.30065588      -2.12646797       0.41816670
C        3.27004273      -3.42218960       3.42846635
N        2.55491050      -4.65920704       3.73007759
C        2.86303277      -5.96292232       3.35464488
C        1.80692544      -6.76697759       3.77375108
C        0.91713215      -5.94526929       4.51052947
S       -0.56962137      -6.08329621       5.38828274
C       -0.51478981      -4.41377541       5.70561687
Br      -1.85773068      -3.54010940       6.68754917
C        0.57052373      -3.74923434       5.19011747
C        1.39516381      -4.67288430       4.48430565
C        4.03424538      -6.34232948       2.56336510
O        4.53436632      -5.56453719       1.75017596
N        4.58815491      -7.60290866       2.73705795
C        5.72816791      -8.01677163       1.93498785
C        5.86198372      -9.50614312       2.20853260
C        5.42774053      -9.61192811       3.66392273
C        4.28235285      -8.60744355       3.74874444
H        0.93733680       0.53618518       2.50942902
H        2.33288772      -0.88949195       3.94737938
H        2.41169369      -3.91234621       0.86098073
H        1.01214742      -2.47754885      -0.56882433
H        3.46808167      -2.93735932       4.39254991
H        4.24313086      -3.63608377       2.98505931
H        1.66339440      -7.81820178       3.57523773
H        0.75102605      -2.68805096       5.29333877
H        6.60812030      -7.46887740       2.29410390
H        5.57349790      -7.78827261       0.87726753
H        5.16773829     -10.06869522       1.57192290
H        6.87301784      -9.88268357       2.03286219
H        5.11985379     -10.62333548       3.94440046
H        6.24890906      -9.30648815       4.32218719
H        3.34871670      -9.10382478       3.46761714
H        4.18725200      -8.15982784       4.74033366
