189
Properties=species:S:1:pos:R:3 pbc="F F F"
C        0.00000000       0.00000000       0.00000000
C        0.88163403       0.88163403      -0.88163403
C        2.20464248       0.52136447      -1.11773592
C        3.01579860       1.33652007      -1.91255681
C        2.51079328       2.51138539      -2.49181067
C        1.17497837       2.86136220      -2.22808672
C        0.36213595       2.04922826      -1.43261947
C        3.36941603       3.46509868      -3.29330483
N        4.40792400       2.81805990      -4.08993696
C        5.75910865       2.71658831      -3.77222478
C        6.40057228       2.10962219      -4.84419202
C        5.41066075       1.86405292      -5.83013694
S        5.32052160       1.18096074      -7.41976451
C        3.63371057       1.49028315      -7.44697431
C        3.15400366       2.07690021      -6.29830950
Br       1.33237694       2.50443079      -6.06388126
C        4.20311845       2.29574996      -5.35927768
C        6.34507708       3.14446365      -2.50738917
O        5.69624145       3.30719628      -1.47809155
N        7.70087073       3.37918680      -2.54960669
C        8.42561139       3.84421196      -1.38132933
C        8.21476986       5.34648325      -1.11568333
N        8.99213181       5.83794582       0.02926327
C        8.52901433       5.29061061       1.30946661
C        9.10511474       6.24767084       2.34480491
C        9.42624962       7.52449829       1.57790747
C        8.87199253       7.29028260       0.18305132
H        2.62220094      -0.38078501      -0.67863189
H        4.05445586       1.04626706      -2.05468007
H        0.75687248       3.77975094      -2.63613228
H       -0.66660067       2.34230077      -1.24171041
H        3.83424115       4.19774281      -2.62815694
H        2.76034572       4.04985534      -3.99107863
H        7.44807495       1.85088892      -4.91883637
H        3.07019498       1.21152648      -8.32708519
H        8.17696305       3.37558132      -3.43975651
H        9.48576039       3.63274146      -1.55779039
H        8.09766763       3.24772223      -0.52295543
H        7.14623784       5.56194680      -0.98603661
H        8.53045637       5.88994697      -2.01629102
H        8.88646991       4.26983730       1.47665080
H        7.43355211       5.29198578       1.37847366
H        8.38663875       6.43405553       3.14992475
H       10.01759083       5.84107741       2.79537932
H        8.98543806       8.40782037       2.05030492
H       10.51266766       7.66949525       1.54115740
H        7.82590282       7.61951990       0.13649393
H        9.44529062       7.83461135      -0.57388347
C       -0.88163403      -0.88163403      -0.88163403
C       -1.10071283      -2.21054044      -0.53248959
C       -1.89557611      -3.02148998      -1.34780938
C       -2.49181865      -2.51059409      -2.51157661
C       -2.24514489      -1.16870507      -2.85057734
C       -1.44968306      -0.35603238      -2.03826824
C       -3.29428662      -3.36767710      -3.46585581
N       -4.07378588      -4.42070772      -2.82142726
C       -3.74145789      -5.76954217      -2.73692168
C       -4.80067284      -6.42796809      -2.12574556
C       -5.79399194      -5.45066887      -1.86018981
S       -7.37741135      -5.38360357      -1.16023193
C       -7.42476455      -3.69412560      -1.45207787
C       -6.28702279      -3.19686414      -2.04532645
Br      -6.07532656      -1.36872987      -2.45663255
C       -5.33974341      -4.23410734      -2.28429534
C       -2.47520287      -6.33826378      -3.18346326
O       -1.45420547      -5.67737737      -3.34994643
N       -2.50614344      -7.69198285      -3.43153794
C       -1.33541654      -8.40007101      -3.91566513
C       -1.08721445      -8.17140905      -5.41831293
N        0.06044521      -8.93208419      -5.92917538
C        1.34142200      -8.46149799      -5.39008235
C        2.37271709      -9.01735627      -6.36334150
C        1.59613710      -9.33339846      -7.63557909
C        0.19822310      -8.79575700      -7.38168992
H       -0.64826299      -2.63267700       0.36089217
H       -2.02426397      -4.06441220      -1.06672682
H       -2.66671027      -0.74554135      -3.76050408
H       -1.27214314       0.67749524      -2.32276260
H       -2.63198086      -3.81830116      -4.20985888
H       -4.00407868      -2.75987970      -4.03732132
H       -4.86212043      -7.47873031      -1.87694951
H       -8.30762598      -3.14243569      -1.15874499
H       -3.39136780      -8.17712376      -3.42380932
H       -1.49902407      -9.46403842      -3.71322975
H       -0.47436345      -8.06943389      -3.32454794
H       -0.97054158      -7.09949578      -5.62418388
H       -1.99008074      -8.49075441      -5.95585920
H        1.52258177      -8.82750112      -4.37473706
H        1.39936932      -7.36543184      -5.38100171
H        3.16861720      -8.28888028      -6.55050645
H        2.83657887      -9.92924934      -5.97061845
H        2.05505257      -8.87892246      -8.51908361
H        1.56886236     -10.41861805      -7.79124982
H        0.13777794      -7.74693089      -7.69977584
H       -0.55839796      -9.37121630      -7.92417118
C       -0.88163403       0.88163403       0.88163403
C       -2.20648190       0.52475225       1.11250871
C       -3.01757479       1.33995848       1.90734221
C       -2.51073238       2.51144427       2.49181270
C       -1.17302414       2.85807924       2.23332392
C       -0.36023360       2.04589139       1.43785870
C       -3.36888240       3.46533385       3.29360329
N       -4.41186623       2.81906163       4.08499300
C       -5.76236400       2.72278090       3.76277684
C       -6.40903976       2.11449142       4.83085531
C       -5.42296740       1.86278596       5.81909725
S       -5.33989432       1.17448895       7.40686357
C       -3.65222474       1.47847528       7.44026801
C       -3.16712862       2.06715713       6.29492763
Br      -1.34346385       2.48974258       6.06748256
C       -4.21263253       2.29218202       5.35333155
C       -6.34306387       3.15639887       2.49746718
O       -5.69052694       3.32030383       1.47069850
N       -7.69824769       3.39520748       2.53620905
C       -8.41790366       3.86610720       1.36714182
C       -8.20157760       5.36853195       1.10682688
N       -8.97384494       5.86596019      -0.03899077
C       -8.50844625       5.32116036      -1.31944828
C       -9.07835079       6.28321551      -2.35358563
C       -9.39790819       7.55865100      -1.58371875
C       -8.84872322       7.31838617      -0.18788557
H       -2.62546844      -0.37472717       0.66930654
H       -4.05756461       1.05249930       2.04533908
H       -0.75334317       3.77389239       2.64552014
H        0.66999623       2.33635224       1.25105450
H       -3.82936073       4.20148051       2.62929966
H       -2.76017528       4.04602522       3.99507920
H       -7.45756716       1.85878852       4.90144456
H       -3.09231784       1.19523780       8.32125101
H       -8.17711639       3.39032224       3.42486224
H       -9.47924747       3.65739013       1.53965464
H       -8.08914242       3.27126543       0.50793744
H       -7.13198413       5.58107073       0.98116638
H       -8.51837760       5.91017908       2.00813768
H       -8.86854456       4.30202775      -1.49091590
H       -7.41277561       5.31934093      -1.38505231
H       -8.35679835       6.46986023      -3.15588906
H       -9.99067729       5.88086293      -2.80825130
H       -8.95289095       8.44205828      -2.05199572
H      -10.48398032       7.70691307      -1.54988788
H       -7.80176719       7.64422086      -0.13705926
H       -9.42268257       7.86214557       0.56895730
C        0.88163403      -0.88163403       0.88163403
C        0.81962460      -0.75801244       2.26610582
C        1.63777366      -1.55464957       3.07245224
C        2.51507013      -2.49292147       2.50599775
C        2.56955840      -2.59029373       1.10457516
C        1.75398819      -1.79411799       0.29587749
C        3.47513009      -3.32076139       3.33192806
N        2.96109723      -3.71416018       4.64066346
C        3.26005735      -3.12315921       5.86470519
C        2.63229740      -3.86547763       6.85661147
C        1.96222715      -4.93449325       6.20813022
S        0.98054870      -6.29256596       6.64813218
C        0.85298535      -6.72475104       4.99323163
C        1.51631683      -5.87296163       4.13993491
Br       1.51891984      -6.11233107       2.26943808
C        2.16643992      -4.83030178       4.86140439
C        4.05816394      -1.91342114       6.02534483
O        4.25410187      -1.10353216       5.12389525
N        4.60693021      -1.74603365       7.27670037
C        5.45561293      -0.60994711       7.58559264
C        6.88153649      -0.76940958       7.02599037
N        7.76371954       0.34831239       7.38540721
C        7.38056571       1.60774719       6.73733981
C        8.63361568       2.46726491       6.84162990
C        9.77463376       1.48742347       7.08563015
C        9.14271667       0.11273755       6.94924469
H        0.15219804      -0.03711091       2.73073887
H        1.59051402      -1.41473329       4.15015567
H        3.25834190      -3.28582590       0.62858790
H        1.81591691      -1.88648176      -0.78498817
H        4.41529345      -2.77907063       3.46577682
H        3.74346306      -4.24641857       2.81139806
H        2.63034142      -3.66755155       7.91990727
H        0.27724257      -7.60168622       4.72987787
H        4.54667684      -2.49688120       7.94874284
H        5.48170994      -0.51783923       8.67674307
H        4.97657595       0.28766944       7.17943877
H        6.84800157      -0.90857725       5.93764242
H        7.29895592      -1.69643982       7.44129861
H        6.53251409       2.08803147       7.23517379
H        7.12531802       1.45852969       5.68027590
H        8.79096470       3.04491128       5.92471610
H        8.56081107       3.17374113       7.67621899
H       10.59683505       1.63178518       6.37790363
H       10.17289686       1.62940430       8.09751295
H        9.18822274      -0.21733432       5.90337173
H        9.65258080      -0.62772187       7.57348277
