105
Properties=species:S:1:pos:R:3 pbc="F F F"
C        0.00000000       0.00000000       0.00000000
Cl       8.81349240       5.30330267       1.07268960
C        7.29559074       4.83748988       1.74140889
C        7.02306011       5.11572446       3.07866167
C        5.79711290       4.74109287       3.62061852
C        4.84995069       4.09694836       2.82013603
C        5.11635215       3.82090824       1.47029417
C        6.35323757       4.19032749       0.93815802
N        4.09197640       3.18439218       0.73309574
C        4.10296982       2.87495440      -0.61496658
O        5.00087553       3.11824552      -1.41528084
C        2.86420891       2.24490810      -1.15757348
C        2.05670839       1.42256487      -0.35678132
C        0.88238507       0.88238507      -0.88238507
C        0.50271449       1.13715789      -2.19760606
C        1.31858018       1.92794640      -3.00717032
Br       0.77310894       2.23156401      -4.79971701
C        2.50408733       2.47307011      -2.49919270
O        3.28583968       3.23066226      -3.33657273
H        7.75885884       5.62153538       3.69753132
H        5.57664336       4.95270074       4.66379997
H        3.89917563       3.81888665       3.26957815
H        6.61065264       3.99316520      -0.09661689
H        3.23474151       3.02425382       1.24516449
H        2.34283410       1.17625988       0.66141094
H       -0.41644705       0.71486085      -2.59539697
H        4.16356985       3.36552947      -2.91236603
Cl       0.57079067      -4.16691497      -9.44798117
C        0.84261558      -2.80246332      -8.43182399
C        1.58132842      -1.72549793      -8.91595340
C        1.80131845      -0.62187666      -8.09702904
C        1.27568623      -0.60004162      -6.80240762
C        0.52435118      -1.67912649      -6.31219092
C        0.31827494      -2.78680288      -7.13687910
N        0.01587328      -1.56047403      -4.99867208
C       -0.79816220      -2.46016722      -4.33456138
O       -1.23999449      -3.51512473      -4.77928267
C       -1.23639381      -2.06644499      -2.96385170
C       -0.42516365      -1.26773523      -2.14315571
C       -0.88238507      -0.88238507      -0.88238507
C       -2.13070328      -1.28863758      -0.41813758
C       -2.92719826      -2.10901725      -1.21748139
Br      -4.61215904      -2.65622833      -0.53600259
C       -2.48227700      -2.51137025      -2.48270290
O       -3.29109112      -3.33364065      -3.22834290
H        1.98428230      -1.74243746      -9.92470774
H        2.37819669       0.22230817      -8.46604899
H        1.46056995       0.27702696      -6.18608104
H       -0.24874899      -3.64871131      -6.80297444
H        0.20865624      -0.67741632      -4.54507075
H        0.56744787      -0.96351092      -2.46161999
H       -2.47879254      -0.97887385       0.56385562
H       -2.76848862      -3.69129330      -3.98168343
Cl      -8.39250503       5.91052451      -1.25892407
C       -6.86568972       5.38966218      -1.86368017
C       -6.49204169       5.72971501      -3.16163380
C       -5.25868118       5.31072772      -3.65182165
C       -4.40500667       4.56046386      -2.83870752
C       -4.77322188       4.22144933      -1.52770499
C       -6.01716387       4.63653314      -1.04828998
N       -3.83812896       3.47765054      -0.77250667
C       -3.95381204       3.08915178       0.54992699
O       -4.88479288       3.34082557       1.30878344
C       -2.79233581       2.34978322       1.12457147
C       -1.98615535       1.52709432       0.32280492
C       -0.88238507       0.88238507       0.88238507
C       -0.57292773       1.03292969       2.23162103
C       -1.38989668       1.82419324       3.03960698
Br      -0.94284811       1.98413381       4.87740804
C       -2.50563723       2.47348355       2.49722937
O       -3.29239542       3.22782815       3.33285111
H       -7.15508056       6.31776438      -3.78998203
H       -4.95968773       5.57007757      -4.66422118
H       -3.44587109       4.24970372      -3.24709068
H       -6.35155578       4.39443910      -0.04556014
H       -2.96108926       3.29409815      -1.24135658
H       -2.22090160       1.36116925      -0.72438781
H        0.29191107       0.52963100       2.65609084
H       -4.13153546       3.44374300       2.86618688
Cl      -1.38461870      -6.52802364       7.90070053
C       -1.79058601      -5.03057302       7.15168472
C       -2.86944511      -4.29428168       7.63528633
C       -3.19854031      -3.08389565       7.03223190
C       -2.44272871      -2.61514157       5.95435015
C       -1.35016257      -3.34923795       5.46789084
C       -1.03430318      -4.56782032       6.07188990
N       -0.63207864      -2.78777075       4.38758072
C        0.50819367      -3.29417476       3.79052237
O        1.11053125      -4.31477771       4.10909292
C        1.09953120      -2.47279834       2.69436095
C        0.29353583      -1.67088439       1.87163437
C        0.88238507      -0.88238507       0.88238507
C        2.26134901      -0.88688523       0.68924421
C        3.06353432      -1.70664555       1.48351702
Br       4.93580807      -1.69723244       1.17134946
C        2.48983375      -2.50981598       2.47670042
O        3.31516456      -3.31471672       3.22319339
H       -3.45215032      -4.65810091       8.47691231
H       -4.04001711      -2.50355464       7.40200660
H       -2.72083122      -1.66435257       5.50496277
H       -0.20467496      -5.17612134       5.72898835
H       -0.95263850      -1.87571489       4.09075444
H       -0.78760216      -1.67172194       1.97356326
H        2.70989312      -0.26531694      -0.08139928
H        2.76166808      -3.95721181       3.72258546
