126
Properties=species:S:1:pos:R:3 pbc="F F F"
Cl       9.72339643       6.21320669       0.16278558
C        8.20549476       5.74739391       0.83150486
C        7.93296414       6.02562848       2.16875764
C        6.70701692       5.65099689       2.71071450
C        5.75985471       5.00685238       1.91023201
C        6.02625618       4.73081227       0.56039015
C        7.26314159       5.10023151       0.02825399
N        5.00188042       4.09429620      -0.17680828
C        5.01287384       3.78485843      -1.52487061
O        5.91077955       4.02814954      -2.32518486
C        3.77411293       3.15481213      -2.06747751
C        2.96661242       2.33246890      -1.26668535
C        1.79228910       1.79228910      -1.79228910
C        1.41261852       2.04706192      -3.10751009
C        2.22848420       2.83785042      -3.91707435
Br       1.68301296       3.14146804      -5.70962103
C        3.41399136       3.38297414      -3.40909673
O        4.19574371       4.14056628      -4.24647675
H        8.66876286       6.53143940       2.78762729
H        6.48654738       5.86260476       3.75389594
H        4.80907966       4.72879067       2.35967413
H        7.52055666       4.90306923      -1.00652092
H        4.14464553       3.93415784       0.33526047
H        3.25273812       2.08616390      -0.24849309
H        0.49345697       1.62476487      -3.50530100
H        5.07347387       4.27543349      -3.82227005
Cl      -0.21111366      -5.32865652     -10.23404736
C        0.07004003      -3.94596247      -9.24546137
C        0.84768750      -2.90031371      -9.73720877
C        1.07529692      -1.78201632      -8.94057992
C        0.51844036      -1.71422857      -7.66068688
C       -0.27202624      -2.76152756      -7.16312450
C       -0.48569083      -3.88436923      -7.96505905
N       -0.80974548      -2.59692834      -5.86631109
C       -1.66262332      -3.45897068      -5.20100888
O       -2.11997884      -4.51361462      -5.63052050
C       -2.12456273      -3.01976306      -3.85207678
C       -1.31388582      -2.22080463      -3.03107621
C       -1.79228910      -1.79228910      -1.79228910
C       -3.06166744      -2.15551393      -1.35000916
C       -3.85869926      -2.97595097      -2.14875873
Br      -5.57341798      -3.46368970      -1.49699435
C       -3.39291045      -3.42126674      -3.39188504
O       -4.20363379      -4.24192181      -4.13723115
H        1.27497709      -2.95289510     -10.73465696
H        1.68243600      -0.96205925      -9.31563296
H        0.71022844      -0.82662317      -7.06180148
H       -1.08256163      -4.72317630      -7.62440887
H       -0.60587461      -1.70767245      -5.42999584
H       -0.30626382      -1.94949309      -3.33163820
H       -3.42601525      -1.81233472      -0.38517288
H       -3.67177241      -4.63147249      -4.86793251
Cl     -10.88663477       3.60844764       1.27873513
C       -9.48463862       3.31549546       0.32124972
C       -9.60445734       3.25024413      -1.06486649
C       -8.47298708       3.01458276      -1.84027053
C       -7.22889660       2.85242009      -1.22484161
C       -7.10122864       2.92468396       0.17076570
C       -8.24355506       3.15025868       0.94130537
N       -5.80125915       2.76840409       0.70332167
C       -5.42628365       2.86515037       2.03116886
O       -6.15740649       3.12475247       2.98195499
C       -3.97108434       2.70606125       2.31925699
C       -3.15784170       1.88665306       1.52127191
C       -1.79228910       1.79228910       1.79228910
C       -1.22258206       2.49140951       2.85319896
C       -2.03262178       3.28208593       3.66870126
Br      -1.21750164       4.20042754       5.11617285
C       -3.40614823       3.38366921       3.41624478
O       -4.16872888       4.15889435       4.25516352
H      -10.57182388       3.38212023      -1.54136913
H       -8.55755547       2.96033808      -2.92263735
H       -6.36138321       2.67291332      -1.85610033
H       -8.19942899       3.20743345       2.02328436
H       -5.06861600       2.66026331       0.01466359
H       -3.57750520       1.30139202       0.70849789
H       -0.15687940       2.41411229       3.05253115
H       -5.11896541       3.96975420       4.08245780
Cl       0.85514737      -4.20662561      10.71204455
C        0.60664395      -2.91247025       9.60226960
C        0.00721660      -1.73628041      10.04633797
C       -0.19363807      -0.68925758       9.15167980
C        0.21215630      -0.82313457       7.82118422
C        0.82337999      -2.00308155       7.37021676
C        1.01061314      -3.05238432       8.27212165
N        1.21849369      -2.04089354       6.01359767
C        1.89107181      -3.06299123       5.36853984
O        2.28212320      -4.11303403       5.86895673
C        2.23417743      -2.82620805       3.93601709
C        1.42104473      -2.02819088       3.11653105
C        1.79228910      -1.79228910       1.79228910
C        2.95508126      -2.34753437       1.26457490
C        3.74984669      -3.16749478       2.06606750
Br       5.31447682      -3.92038860       1.29923661
C        3.38979768      -3.42101702       3.39524752
O        4.19175061      -4.24844417       4.14259197
H       -0.30240522      -1.63249240      11.08248780
H       -0.66230439       0.23163662       9.48919721
H        0.04569054       0.01273895       7.14524461
H        1.47121586      -3.98704810       7.97188284
H        1.05947514      -1.18481164       5.49925612
H        0.49026787      -1.60956993       3.48755731
H        3.23706661      -2.15351683       0.23293940
H        3.71181684      -4.49316229       4.96619828
C       -0.00445707       0.01189536      -1.78238275
H       -0.66409135       0.67374010      -2.43557963
H        0.65740317      -0.63156657      -2.45157240
C       -0.90989263      -0.90692880      -0.91072765
C        0.90977584       0.90977584      -0.90977584
C       -0.00465871       1.77757030       0.00794375
H       -0.66225468       2.44313916      -0.64384735
H        0.64322798       2.43503045       0.67728295
C       -1.78241447       0.00034974      -0.00472694
H       -2.45427497      -0.65498947       0.64260836
H       -2.43311707       0.67328779      -0.65473579
C       -0.91132561       0.90220522       0.91563759
C       -0.01476271      -0.02253852       1.78660255
H       -0.67934791      -0.69751639       2.42135241
H        0.63392994       0.61504881       2.47327442
C        0.01484550      -1.77751727      -0.01636693
H        0.67870853      -2.42144646      -0.68295456
H       -0.62264859      -2.45592969       0.64226336
C        1.78714474       0.01002794       0.00389507
H        2.44202412       0.67113390       0.66197326
H        2.45385902      -0.65136977      -0.64189061
C        0.91606151      -0.90478549       0.90901405
