82
Properties=species:S:1:pos:R:3 pbc="F F F"
O       -0.34417583       4.16500406      -1.79162291
N       -0.04739635       3.11601018      -2.66556586
C        1.27925229       2.83329122      -2.63224210
C        1.80706916       1.80706916      -1.80706916
C        3.18045959       1.51066081      -1.77008339
C        4.05786213       2.22338122      -2.56619334
O        5.39282250       1.92875707      -2.49949069
C        3.58647583       3.20653952      -3.42305018
C        2.21278137       3.49814884      -3.46468172
H        3.55338948       0.73303810      -1.11570666
H        5.84414049       2.63087446      -2.99345228
H        4.25996036       3.75426041      -4.06941364
C        1.82631345       4.48424122      -4.44031709
C        1.50264657       5.31009358      -5.25741172
Br       0.97930460       6.64542700      -6.57858461
O       -3.39715399      -2.93537976       0.72008261
N       -2.31194506      -3.38683691      -0.03539772
C       -2.43386933      -2.98521851      -1.32569777
C       -1.80706916      -1.80706916      -1.80706916
C       -1.93035346      -1.38791515      -3.14293518
C       -2.67183576      -2.14247310      -4.03312782
O       -2.79231437      -1.70449289      -5.32426300
C       -3.26762492      -3.32557470      -3.62286591
C       -3.13876033      -3.74776149      -2.28909011
H       -1.45404202      -0.47391800      -3.47417423
H       -3.46836219      -2.26715633      -5.73294871
H       -3.82967201      -3.93787077      -4.31609163
C       -3.73556150      -5.02399072      -1.99131954
C       -4.23538249      -6.09283270      -1.74193668
Br      -5.04355074      -7.82105978      -1.33870569
O        0.51043241       2.14759392       3.97528962
N       -0.59124465       1.29817522       3.84475982
C       -1.60556991       1.93356528       3.20565042
C       -1.80706916       1.80706916       1.80706916
C       -2.85682066       2.46302488       1.14135825
C       -3.73824933       3.25051450       1.85867285
O       -4.74166167       3.89368747       1.18572113
C       -3.61076534       3.37104403       3.23425615
C       -2.56527745       2.70995436       3.90038013
H       -2.97223610       2.36001088       0.06988726
H       -5.13638047       4.50883327       1.82325350
H       -4.30906390       3.96427833       3.81029218
C       -2.57093735       2.84600706       5.33392734
C       -2.57567752       2.95995120       6.53452314
Br      -2.58334197       3.14418924       8.47578500
O        4.42228662      -0.14189149       1.04827303
N        3.83986543      -1.32013663       0.57417763
C        3.19794043      -1.96816048       1.57868470
C        1.80706916      -1.80706916       1.80706916
C        1.13826316      -2.47691275       2.84602787
C        1.84011542      -3.33378281       3.67353845
O        1.17076492      -3.96079687       4.68950847
C        3.19225763      -3.55949396       3.46431395
C        3.85917492      -2.89484462       2.42159240
H        0.07921391      -2.31816165       3.00475868
H        1.85312647      -4.37479144       5.24054933
H        3.74731843      -4.24684533       4.08947065
C        5.24209291      -3.25807371       2.25070514
C        6.40028672      -3.56227807       2.10758706
Br       8.27298817      -4.05415080       1.87617723
C       -0.00445707       0.01189536      -1.78238275
H       -0.66409135       0.67374010      -2.43557963
H        0.65740317      -0.63156657      -2.45157240
C       -0.90989263      -0.90692880      -0.91072765
C        0.90977584       0.90977584      -0.90977584
C       -0.00465871       1.77757030       0.00794375
H       -0.66225468       2.44313916      -0.64384735
H        0.64322798       2.43503045       0.67728295
C       -1.78241447       0.00034974      -0.00472694
H       -2.45427497      -0.65498947       0.64260836
H       -2.43311707       0.67328779      -0.65473579
C       -0.91132561       0.90220522       0.91563759
C       -0.01476271      -0.02253852       1.78660255
H       -0.67934791      -0.69751639       2.42135241
H        0.63392994       0.61504881       2.47327442
C        0.01484550      -1.77751727      -0.01636693
H        0.67870853      -2.42144646      -0.68295456
H       -0.62264859      -2.45592969       0.64226336
C        1.78714474       0.01002794       0.00389507
H        2.44202412       0.67113390       0.66197326
H        2.45385902      -0.65136977      -0.64189061
C        0.91606151      -0.90478549       0.90901405
