189
Properties=species:S:1:pos:R:3 pbc="F F F"
C        0.00000000       0.00000000       0.00000000
C        0.88163770       0.88163770      -0.88163770
C        0.31923037       1.57692972      -1.95033578
C        1.13225702       2.36573476      -2.77059851
C        2.50515652       2.47153937      -2.51854577
C        3.05589619       1.76402134      -1.44060323
C        2.24643993       0.97258082      -0.62150767
C        3.35781246       3.22990816      -3.44110364
C        4.34210890       4.04261833      -3.03113424
C        5.24933265       4.66486473      -4.03409484
O        5.17845692       4.41917558      -5.23266282
C        6.24489307       5.64098583      -3.52691709
C        6.18726354       6.94243253      -4.02927525
C        5.26604550       7.34787260      -5.14521227
N        6.96274920       7.93880206      -3.54071627
C        7.86498657       7.66548828      -2.59511594
C        8.60860448       8.73242784      -2.10864519
C        9.60275838       8.56382411      -1.14596538
C        9.88046330       7.28840063      -0.68583138
C        9.14677258       6.20025407      -1.15819638
C        8.08471246       6.36391258      -2.09025021
C        7.22345253       5.31319928      -2.55446853
C        7.35285467       3.92615783      -2.02686866
C        7.27214538       3.66249627      -0.64517729
C        7.40157036       2.36456560      -0.14389760
C        7.57011551       1.29509964      -1.01722282
C        7.62412550       1.52505094      -2.38874759
C        7.53289207       2.82826754      -2.88741760
H       -0.74459590       1.50225592      -2.16126301
H        0.68336552       2.89141080      -3.61124389
H        4.12584950       1.79806619      -1.24455680
H        2.69393113       0.42204162       0.20161868
H        3.17135254       3.07154287      -4.50219791
H        4.52287099       4.23777151      -1.98067702
H        4.22287677       7.15222793      -4.88391465
H        5.52646339       6.81637356      -6.06681032
H        5.36223926       8.41908159      -5.35398874
H        8.40474061       9.73076290      -2.49138447
H       10.15260222       9.42690126      -0.78217618
H        9.40980912       5.21048837      -0.79248091
H        7.12096138       4.47575174       0.06253920
H        7.37024602       2.19117334       0.92965456
H        7.66026866       0.28244299      -0.63124434
H        7.74137558       0.69017728      -3.07517743
H        7.59224496       2.97322542      -3.96584470
C       10.91987951       7.08701110       0.29020970
C       11.79039059       6.91834737       1.10764411
Br      13.19793337       6.64563238       2.42936641
C       -0.88163770      -0.88163770      -0.88163770
C       -2.20850604      -1.11346117      -0.52452866
C       -3.00787581      -1.93977336      -1.32094112
C       -2.48816998      -2.52607013      -2.48100155
C       -1.15064607      -2.28455389      -2.82532080
C       -0.34884414      -1.46206777      -2.02961651
C       -3.31220625      -3.46130539      -3.25531262
C       -3.34969648      -3.47073380      -4.59543119
C       -4.10247557      -4.54210729      -5.30370935
O       -4.64883631      -5.46726386      -4.71419514
C       -4.19995558      -4.43274375      -6.78009666
C       -5.47668630      -4.34403295      -7.33825208
C       -6.73452251      -4.49473487      -6.52987298
N       -5.67218011      -4.11238748      -8.65769995
C       -4.61843906      -4.03320844      -9.47394328
C       -4.87778727      -3.76125007     -10.81064017
C       -3.86132718      -3.68919296     -11.76202772
C       -2.55658035      -3.93002268     -11.36809228
C       -2.27000237      -4.20433437     -10.03088629
C       -3.28703974      -4.21543001      -9.03640550
C       -3.06514171      -4.39643622      -7.62954241
C       -1.68675813      -4.53672596      -7.08239707
C       -0.70569407      -3.55385624      -7.32026863
C        0.59132064      -3.68443307      -6.81692113
C        0.92384351      -4.77971167      -6.02656981
C       -0.03505884      -5.75040481      -5.75246039
C       -1.32193732      -5.63862559      -6.28801429
H       -2.62580461      -0.66830851       0.37519009
H       -4.03801698      -2.12526559      -1.02273763
H       -0.71004572      -2.75762315      -3.70080361
H        0.68892263      -1.29685212      -2.30642458
H       -3.88016317      -4.18822275      -2.67670739
H       -2.81706634      -2.73628120      -5.18797198
H       -6.77789688      -3.75214151      -5.72898096
H       -6.79812455      -5.50351458      -6.10800814
H       -7.61795675      -4.35479486      -7.16255799
H       -5.90792269      -3.59737633     -11.12158896
H       -4.10553674      -3.46078769     -12.79535522
H       -1.23683172      -4.41278756      -9.76315912
H       -0.94044771      -2.67518460      -7.91854161
H        1.34060149      -2.92890734      -7.04345896
H        1.92922605      -4.87901229      -5.62416975
H        0.21708371      -6.60046102      -5.12335299
H       -2.04387597      -6.42355334      -6.06388577
C       -1.49319076      -3.88544163     -12.33804852
C       -0.60260198      -3.84810500     -13.15038687
Br       0.83740476      -3.78773483     -14.46386927
C       -0.88163770       0.88163770       0.88163770
C       -0.59251120       1.01578559       2.23819909
C       -1.41452507       1.80531432       3.04875090
C       -2.51886369       2.47167076       2.50470721
C       -2.79736166       2.32472487       1.13843423
C       -1.97965114       1.53385674       0.32702053
C       -3.42189186       3.22196857       3.38496383
C       -3.93687471       4.41693101       3.06205575
C       -4.95374573       5.04492612       3.94962036
O       -5.39653325       4.48689782       4.94686425
C       -5.40030394       6.41519485       3.59729720
C       -5.19457564       7.42401276       4.54038293
C       -4.67836201       7.15493877       5.92582959
N       -5.44636934       8.72634565       4.26955254
C       -5.97398287       9.06186258       3.08974534
C       -6.17970356      10.41486205       2.85511189
C       -6.75570804      10.88214580       1.67469402
C       -7.16656288       9.96667330       0.72145913
C       -6.97003085       8.60209364       0.93309854
C       -6.32343974       8.11335025       2.10208527
C       -6.00032296       6.73725731       2.35354007
C       -6.28310959       5.68512188       1.33764968
C       -5.77044662       5.78060111       0.02877122
C       -6.03970987       4.80111044      -0.93078675
C       -6.79110076       3.68125303      -0.58991583
C       -7.28498931       3.54850622       0.70442851
C       -7.04745859       4.54747533       1.65364328
H        0.25936295       0.50189102       2.67639496
H       -1.18684155       1.88948525       4.10969341
H       -3.67078869       2.80074784       0.69693596
H       -2.21903136       1.42241648      -0.72709377
H       -3.68808731       2.73509780       4.32190821
H       -3.65992009       4.93174731       2.14965212
H       -3.70236466       6.66393228       5.89272241
H       -5.38916772       6.53632622       6.48415333
H       -4.56169282       8.09165181       6.48196496
H       -5.87848225      11.13053875       3.61786697
H       -6.88696681      11.94980996       1.52490289
H       -7.32808612       7.91143853       0.17325374
H       -5.16244970       6.63506739      -0.26334317
H       -5.66117061       4.91494410      -1.94434990
H       -6.99341346       2.91171774      -1.33117521
H       -7.86050240       2.66779433       0.97843357
H       -7.46022016       4.41733559       2.65375933
C       -7.78657669      10.42488063      -0.49477642
C       -8.30583825      10.80862928      -1.51337369
Br      -9.14544029      11.42911839      -3.16035933
C        0.88163770      -0.88163770       0.88163770
C        1.91797758      -0.31073194       1.61778636
C        2.73883889      -1.12295979       2.40679162
C        2.51937440      -2.50396454       2.47190272
C        1.47380243      -3.06312804       1.72359029
C        0.65426437      -2.25437193       0.93189212
C        3.44423580      -3.35247172       3.23211674
C        3.03942668      -4.36710703       4.00932775
C        4.04942307      -5.26466859       4.63420055
O        5.25153652      -5.15771565       4.42104316
C        3.54368576      -6.29715486       5.57195537
C        4.01184282      -6.26028975       6.88683877
C        5.09344596      -5.32222266       7.34346175
N        3.51858766      -7.07289477       7.85078511
C        2.60343774      -7.99112580       7.53102725
C        2.10969822      -8.77363365       8.56634564
C        1.17721959      -9.78682224       8.34850603
C        0.75623232     -10.04323581       7.05522718
C        1.23665671      -9.27045849       5.99810783
C        2.13691773      -8.19004327       6.21191426
C        2.60501042      -7.29093682       5.19517311
C        2.11559227      -7.39797143       3.79231745
C        0.73928486      -7.34498773       3.49554636
C        0.27395162      -7.45366554       2.18241640
C        1.17765820      -7.57304199       1.13173778
C        2.54396308      -7.59873564       1.39522532
C        3.00753204      -7.52842505       2.71262012
H        2.10346095       0.75957709       1.57503918
H        3.55439420      -0.66684490       2.96478111
H        1.30435864      -4.13815201       1.72596184
H       -0.14319967      -2.70801615       0.34953759
H        4.50383649      -3.13566178       3.10559504
H        1.98939463      -4.57889740       4.17302749
H        4.81054508      -4.28122824       7.16724603
H        6.03434414      -5.54595047       6.82935266
H        5.27787023      -5.44051386       8.41692551
H        2.46212613      -8.58586488       9.57889697
H        0.80621146     -10.36741776       9.18805043
H        0.90253959      -9.51715719       4.99308163
H        0.00790535      -7.23229387       4.29397469
H       -0.79539938      -7.44466724       1.98249694
H        0.81944572      -7.64688730       0.10762297
H        3.25374119      -7.67749515       0.57549396
H        4.08317880      -7.56458647       2.88354980
C       -0.18762666     -11.10115332       6.80315425
C       -0.97810855     -11.98715924       6.59204316
Br      -2.25625092     -13.41975587       6.25069440
