134
Properties=species:S:1:pos:R:3 pbc="F F F"
C        1.79168792       1.79168792      -1.79168792
C        1.86267582       3.16211006      -1.54611964
C        2.65757550       3.97173355      -2.35821306
C        3.38633209       3.40974321      -3.40968615
C        3.32794863       2.02790683      -3.64367268
C        2.51558582       1.22066560      -2.83633809
C        4.07690445       1.37711643      -4.75855562
O        3.59460621       0.37322680      -5.26816346
N        5.28187822       1.96585248      -5.08758120
C        6.18703814       1.58331792      -6.10780481
C        5.93720361       0.53054908      -6.99587605
C        6.86828079       0.17934631      -7.99192902
C        8.05845837       0.91169152      -8.10296217
C        8.32048522       1.96716312      -7.23127084
C        7.39140638       2.29860741      -6.24131082
Br       7.81205229       3.75412354      -5.08826128
C        6.58566967      -0.95246607      -8.95211140
F        6.27515946      -0.50203266     -10.19933658
F        7.65958779      -1.77673475      -9.11236083
F        5.55498114      -1.75497763      -8.57375459
H        1.29468736       3.60863054      -0.73348836
H        2.69846198       5.04373019      -2.17826085
H        3.96435142       4.06873468      -4.05175849
H        2.45197298       0.15145072      -3.02887051
H        5.60944985       2.72629036      -4.50500921
H        5.01593144      -0.04422977      -6.93758729
H        8.78641048       0.65844164      -8.87311537
H        9.24898044       2.52433156      -7.33194625
C       -1.79168792      -1.79168792      -1.79168792
C       -2.18596877      -3.04882478      -1.33611197
C       -2.98098745      -3.86147136      -2.14506331
C       -3.38720085      -3.41372423      -3.40483637
C       -3.00467170      -2.14104195      -3.85381450
C       -2.19251273      -1.33465488      -3.04542190
C       -3.40112488      -1.61744953      -5.19400209
O       -2.64155560      -0.83826769      -5.75617317
N       -4.62778158      -2.04726000      -5.66027033
C       -5.24644683      -1.73582135      -6.89589271
C       -4.63613317      -0.94834153      -7.87915403
C       -5.29038049      -0.65765545      -9.09152018
C       -6.56972578      -1.18315101      -9.32023528
C       -7.18955087      -1.97454964      -8.35481867
C       -6.53209451      -2.24712417      -7.15210594
Br      -7.43561290      -3.33852495      -5.88029925
C       -4.61981262       0.18543261     -10.15093500
F       -4.20132808      -0.55991469     -11.21122061
F       -5.45616758       1.12940577     -10.66845205
F       -3.52515551       0.86112321      -9.70972580
H       -1.86995841      -3.40741853      -0.35942932
H       -3.27323270      -4.84986543      -1.79735489
H       -3.97107691      -4.08301936      -4.03074833
H       -1.87680593      -0.35542374      -3.40006453
H       -5.20029139      -2.60319066      -5.03726737
H       -3.63948569      -0.53969909      -7.73010419
H       -7.08712968      -0.97465039     -10.25618742
H       -8.18227747      -2.37378042      -8.54920035
C       -1.79168792       1.79168792       1.79168792
C       -2.38205018       1.25431768       2.93453766
C       -3.19832291       2.05440301       3.73479620
C       -3.41734607       3.39226146       3.39615393
C       -2.80760092       3.93602150       2.25590572
C       -2.00196267       3.12490883       1.44571802
C       -3.01567192       5.35479170       1.84211288
O       -2.96947361       5.61938395       0.64713890
N       -3.20959749       6.25185812       2.87385629
C       -3.45203213       7.64442306       2.78170569
C       -3.58357981       8.31822095       1.56182797
C       -3.81774784       9.70582090       1.51598738
C       -3.93750712      10.41825100       2.71735394
C       -3.81575692       9.76217851       3.94098375
C       -3.57399266       8.38606207       3.97126988
Br      -3.42327186       7.55402554       5.67713971
C       -3.96779995      10.42291855       0.19459651
F       -5.26059366      10.76935373      -0.05748400
F       -3.25741226      11.58565090       0.15215070
F       -3.55593190       9.69688760      -0.87906140
H       -2.22141866       0.21281959       3.20256802
H       -3.67395742       1.63019475       4.61630085
H       -4.09017063       3.98106903       4.01360493
H       -1.54474301       3.53858278       0.54896842
H       -3.11043548       5.90903943       3.82127452
H       -3.50690176       7.78541085       0.61697635
H       -4.12658000      11.49116465       2.70022284
H       -3.91143121      10.33076068       4.86306634
C        1.79168792      -1.79168792       1.79168792
C        2.25171027      -1.30488591       3.01430934
C        3.06787493      -2.10379327       3.81585391
C        3.41691179      -3.39072419       3.39812547
C        2.93793721      -3.88551222       2.17607872
C        2.13219863      -3.07407005       1.36632083
C        3.28805230      -5.24770960       1.67681460
O        3.35113880      -5.41913352       0.46572415
N        3.47620306      -6.20725006       2.65185878
C        3.83471625      -7.56644013       2.47700450
C        4.10887122      -8.12959427       1.22516325
C        4.45536232      -9.48813926       1.09605454
C        4.54261537     -10.28307740       2.24741930
C        4.27933328      -9.73712132       3.50246457
C        3.92734887      -8.38931473       3.61466101
Br       3.58577299      -7.70890613       5.35975799
C        4.75882899     -10.08490465      -0.25841863
F        6.09011368     -10.31408036      -0.43173066
F        4.14819714     -11.28971522      -0.44269850
F        4.37070374      -9.30810513      -1.30505077
H        1.98948314      -0.30265716       3.34466596
H        3.44208301      -1.71715394       4.76121608
H        4.08713289      -3.97562376       4.02208794
H        1.77658175      -3.44766927       0.40804319
H        3.28061774      -5.94907891       3.61105277
H        4.05984229      -7.53044213       0.31900455
H        4.81714274     -11.33439166       2.16643309
H        4.35176710     -10.36862603       4.38486511
C       -0.00445707       0.01189536      -1.78238275
H       -0.66409135       0.67374010      -2.43557963
H        0.65740317      -0.63156657      -2.45157240
C       -0.90989263      -0.90692880      -0.91072765
C        0.90977584       0.90977584      -0.90977584
C       -0.00465871       1.77757030       0.00794375
H       -0.66225468       2.44313916      -0.64384735
H        0.64322798       2.43503045       0.67728295
C       -1.78241447       0.00034974      -0.00472694
H       -2.45427497      -0.65498947       0.64260836
H       -2.43311707       0.67328779      -0.65473579
C       -0.91132561       0.90220522       0.91563759
C       -0.01476271      -0.02253852       1.78660255
H       -0.67934791      -0.69751639       2.42135241
H        0.63392994       0.61504881       2.47327442
C        0.01484550      -1.77751727      -0.01636693
H        0.67870853      -2.42144646      -0.68295456
H       -0.62264859      -2.45592969       0.64226336
C        1.78714474       0.01002794       0.00389507
H        2.44202412       0.67113390       0.66197326
H        2.45385902      -0.65136977      -0.64189061
C        0.91606151      -0.90478549       0.90901405
