113
Properties=species:S:1:pos:R:3 pbc="F F F"
C        0.00000000       0.00000000       0.00000000
C        0.88178390       0.88178390      -0.88178390
C        0.95277180       2.25220604      -0.63621561
C        1.74767147       3.06182953      -1.44830904
C        2.47642807       2.49983919      -2.49978212
C        2.41804461       1.11800281      -2.73376866
C        1.60568180       0.31076158      -1.92643407
C        3.16700043       0.46721240      -3.84865160
O        2.68470218      -0.53667723      -4.35825944
N        4.37197420       1.05594845      -4.17767718
C        5.27713412       0.67341390      -5.19790079
C        5.02729959      -0.37935494      -6.08597202
C        5.95837676      -0.73055771      -7.08202500
C        7.14855434       0.00178750      -7.19305815
C        7.41058120       1.05725909      -6.32136681
C        6.48150236       1.38870339      -5.33140680
Br       6.90214826       2.84421951      -4.17835726
C        5.67576565      -1.86237010      -8.04220738
F        5.36525544      -1.41193668      -9.28943255
F        6.74968376      -2.68663877      -8.20245680
F        4.64507712      -2.66488166      -7.66385056
H        0.38478334       2.69872652       0.17641567
H        1.78855796       4.13382616      -1.26835683
H        3.05444740       3.15883066      -3.14185447
H        1.54206895      -0.75845330      -2.11896649
H        4.69954582       1.81638633      -3.59510519
H        4.10602742      -0.95413379      -6.02768327
H        7.87650646      -0.25146238      -7.96321134
H        8.33907641       1.61442753      -6.42204222
C       -0.88178390      -0.88178390      -0.88178390
C       -0.31710625      -1.95546642      -1.56862078
C       -1.11814790      -2.75481287      -2.38484927
C       -2.48363533      -2.48482429      -2.50758977
C       -3.05337795      -1.41520731      -1.80123081
C       -2.24253991      -0.60470823      -0.99562930
C       -4.50308232      -1.07576717      -1.90401494
O       -4.83131311       0.09678488      -1.77175616
N       -5.35060101      -2.14664968      -2.10834914
C       -6.75812795      -2.12426827      -2.26605258
C       -7.50619494      -0.94130957      -2.28641216
C       -8.90567260      -0.96525118      -2.43892027
C       -9.55519991      -2.19834182      -2.58985826
C       -8.82517200      -3.38554616      -2.57848894
C       -7.43756164      -3.34721562      -2.41683529
Br      -6.50327954      -5.00616346      -2.41528203
C       -9.70371381       0.31733618      -2.46922529
F      -10.14033054       0.62068711      -3.72310788
F      -10.82251889       0.25024448      -1.69322739
F       -9.01600700       1.40751213      -2.03555116
H        0.74555916      -2.16948030      -1.48317305
H       -0.67411970      -3.58124538      -2.93537587
H       -3.07584424      -3.09744778      -3.18184050
H       -2.67802678       0.23858344      -0.46313880
H       -4.94967193      -3.07599720      -2.08536822
H       -7.02380897       0.02783705      -2.18360498
H      -10.63674445      -2.23465458      -2.71685639
H       -9.34562525      -4.33306578      -2.69685514
C       -0.88178390       0.88178390       0.88178390
C       -0.84503031       0.72918514       2.26697800
C       -1.65904676       1.52478281       3.07398047
C       -2.50292470       2.47691833       2.49620635
C       -2.52487722       2.64158339       1.10335546
C       -1.71823185       1.82931526       0.29533034
C       -3.41429407       3.63526330       0.43330706
O       -3.82164527       3.37719762      -0.69255850
N       -3.66616845       4.78671300       1.15271838
C       -4.48369881       5.88255167       0.78219832
C       -5.22265104       5.91740435      -0.40613872
C       -6.01792062       7.03064494      -0.73872151
C       -6.08076726       8.11444564       0.14818709
C       -5.35662999       8.09370980       1.33886731
C       -4.56398282       6.98602366       1.65160606
Br      -3.60541013       7.02309412       3.29622078
C       -6.81955312       7.05523958      -2.01918977
F       -8.15189575       6.88485624      -1.79400068
F       -6.70410893       8.24178307      -2.68039021
F       -6.46277055       6.09537309      -2.91409761
H       -0.19537384      -0.01297528       2.72469562
H       -1.64414338       1.39297136       4.15362621
H       -3.15622281       3.05403304       3.14487668
H       -1.74892927       1.94046788      -0.78681501
H       -3.17031290       4.91467171       2.02605274
H       -5.19984389       5.08383516      -1.10410216
H       -6.69744108       8.98062025      -0.08980591
H       -5.41721243       8.94330228       2.01503146
C        0.88178390      -0.88178390       0.88178390
C        2.26468380      -0.70611961       0.87039003
C        3.07340024      -1.51894926       1.66546055
C        2.49859798      -2.50096343       2.47648797
C        1.10556866      -2.66383461       2.50041281
C        0.29805998      -1.85675866       1.68805880
C        0.44007927      -3.70335016       3.33943500
O       -0.61245230      -4.18257365       2.93616304
N        1.07466574      -4.00198319       4.52895090
C        0.68978767      -4.95346833       5.50519281
C       -0.41823283      -5.79581193       5.35633757
C       -0.76926662      -6.72354883       6.35556185
C        0.01875493      -6.81315347       7.51149160
C        1.12929241      -5.98667422       7.67324047
C        1.46041964      -5.06386311       6.67732980
Br       2.99255058      -3.97003801       6.96213645
C       -1.96149813      -7.63526294       6.18183812
F       -1.59170202      -8.91873759       5.91571574
F       -2.73456701      -7.69709739       7.30297142
F       -2.79753487      -7.26727796       5.17430294
H        2.72081981       0.05194215       0.23821653
H        4.15376679      -1.39438476       1.64258939
H        3.15414014      -3.14716650       3.05382589
H       -0.78137470      -1.99516397       1.68879287
H        1.87985897      -3.44486082       4.78631756
H       -1.03748284      -5.75361614       4.46344359
H       -0.23398632      -7.53105133       8.29119041
H        1.72922468      -6.06984247       8.57647902
