150
Properties=species:S:1:pos:R:3 pbc="F F F"
C        1.79089967       1.79089967      -1.79089967
C        1.48074345       3.13609559      -1.95770972
C        2.28771336       3.94534227      -2.76824217
C        3.41927689       3.42635819      -3.41536888
C        3.69781474       2.05746846      -3.24410421
C        2.89496933       1.24558158      -2.43463078
N        4.26421186       4.22816951      -4.25567120
C        4.53471660       5.57818027      -4.08451213
S        4.28688481       6.58650902      -2.77242575
S        5.39532720       6.19061597      -5.50158552
C        5.75084983       4.60523084      -6.06813846
C        6.71751761       4.26033155      -6.93052597
C        7.15683000       2.82868514      -7.13615709
O        6.86554098       1.84538325      -6.48641280
N        8.12097960       2.88162219      -8.12651982
C        8.40332059       4.19028481      -8.49264009
C        9.35361663       4.58974465      -9.41190709
C        9.49137454       5.95874739      -9.63804059
C        8.68207501       6.87439412      -8.94530233
Br       8.88515211       8.72584877      -9.28271497
C        7.72566342       6.44879814      -8.01475465
C        7.59564923       5.08879710      -7.78215782
C        4.78635577       3.66765755      -5.42267061
O        4.37531101       2.66338897      -5.99097448
H        0.60726784       3.56701059      -1.47430520
H        1.96786237       4.97303578      -2.91251024
H        4.55750933       1.59481594      -3.72811543
H        3.14287311       0.19320961      -2.32153391
H        8.61514666       2.05990702      -8.44070653
H        9.97100972       3.87377517      -9.94328968
H       10.22773990       6.31139364     -10.35680608
H        7.11012780       7.18071994      -7.50639917
C       -1.79089967      -1.79089967      -1.79089967
C       -3.11425797      -1.43441310      -2.02587769
C       -3.92466487      -2.24384451      -2.83278843
C       -3.42382884      -3.41391066      -3.42326446
C       -2.08686100      -3.76017348      -3.15235293
C       -1.27344599      -2.95408603      -2.34764967
N       -4.22940030      -4.26682309      -4.25182918
C       -5.25692750      -3.85315176      -5.08732974
S       -5.66463988      -2.33106171      -5.65011799
S       -6.12979838      -5.26629757      -5.69143274
C       -4.88545451      -6.34536798      -5.19339663
C       -4.66991186      -7.58647678      -5.65198649
C       -3.38801586      -8.34349727      -5.39015911
O       -2.34870557      -7.93338171      -4.91524976
N       -3.57122676      -9.58403382      -5.97386102
C       -4.77955786      -9.65351303      -6.65317461
C       -5.23857352     -10.73016178      -7.38653308
C       -6.48224370     -10.60201610      -8.00390270
C       -7.21933301      -9.41389195      -7.86854649
Br      -8.90955383      -9.27489788      -8.70926414
C       -6.73469247      -8.33221234      -7.12231139
C       -5.49404100      -8.45540833      -6.51715481
C       -4.07499444      -5.65055532      -4.15113417
O       -3.54960357      -6.25548998      -3.22458091
H       -3.53379238      -0.53679262      -1.57799862
H       -4.96564005      -1.95217171      -2.93559663
H       -1.64383666      -4.66151091      -3.57509314
H       -0.24381946      -3.25024618      -2.16355098
H       -2.84843428     -10.28807371      -5.97925222
H       -4.66230164     -11.64393511      -7.48183781
H       -6.87802158     -11.42988885      -8.58802919
H       -7.33373681      -7.43476599      -7.02874411
C       -1.79089967       1.79089967       1.79089967
C       -3.11019861       1.42711142       2.03723872
C       -3.92062245       2.23651917       2.84415619
C       -3.42376540       3.41390729       3.42333127
C       -2.09103019       3.76732029       3.14103693
C       -1.27760619       2.96129156       2.33628393
N       -4.22950297       4.26697343       4.25157617
C       -5.24855300       3.85206610       5.09678990
S       -5.64213861       2.33111544       5.67256553
S       -6.12689629       5.26336521       5.69726719
C       -4.89327803       6.34738895       5.18355215
C       -4.68307102       7.59300133       5.63230277
C       -3.40812858       8.35684401       5.35669965
O       -2.36928330       7.95052592       4.87752781
N       -3.59581059       9.60004731       5.93326371
C       -4.79998333       9.66599218       6.62026998
C       -5.26133875      10.74447257       7.34945705
C       -6.49992634      10.61214369       7.97609248
C       -7.22983888       9.41819292       7.85373965
Br      -8.91337924       9.27352339       8.70681322
C       -6.74291235       8.33476717       7.11153669
C       -5.50722755       8.46220905       6.49716754
C       -4.08516281       5.65099956       4.14052155
O       -3.57013592       6.25316306       3.20637548
H       -3.52664454       0.52367069       1.59826840
H       -4.95888053       1.93854717       2.95598069
H       -1.65128988       4.67446556       3.55468527
H       -0.25127404       3.26312321       2.14321937
H       -2.87778763      10.30895858       5.92901399
H       -4.69064612      11.66273064       7.43469781
H       -6.89736523      11.44127357       8.55730082
H       -7.33647539       7.43269377       7.02807774
C        1.79089967      -1.79089967       1.79089967
C        1.41966084      -3.10586255       2.04902536
C        2.22670957      -3.91491349       2.85967475
C        3.41868235      -3.42654438       3.41577724
C        3.75940426      -2.08642324       3.15355992
C        2.95666710      -1.27491487       2.34359972
N        4.26564516      -4.22872995       4.25367747
C        4.45414734      -5.59895012       4.14431154
S        4.08006366      -6.65998536       2.90577057
S        5.35909621      -6.18260948       5.54582301
C        5.82939134      -4.59181560       6.00301219
C        6.85978547      -4.25635663       6.79223303
C        7.38524620      -2.84268149       6.89374455
O        7.11058144      -1.88045537       6.20630022
N        8.39919704      -2.89694396       7.83298061
C        8.63179321      -4.19810384       8.25634844
C        9.60956849      -4.60085127       9.14484862
C        9.68696949      -5.96149671       9.43969631
C        8.79270508      -6.86581966       8.84324671
Br       8.91587443      -8.70523595       9.27260546
C        7.80958682      -6.43726974       7.94235965
C        7.73906690      -5.08637581       7.64116144
C        4.88134203      -3.63724023       5.35810166
O        4.55662888      -2.58279292       5.89025266
H        0.49885029      -3.51219965       1.63753368
H        1.86138303      -4.91397281       3.07805255
H        4.66819228      -1.64763898       3.56460946
H        3.25331616      -0.24556657       2.15873390
H        8.95307842      -2.08869726       8.07398453
H       10.29286753      -3.89341799       9.60178905
H       10.44270217      -6.31622015      10.13701730
H        7.12858361      -7.15949043       7.50917286
C       -0.00445707       0.01189536      -1.78238275
H       -0.66409135       0.67374010      -2.43557963
H        0.65740317      -0.63156657      -2.45157240
C       -0.90989263      -0.90692880      -0.91072765
C        0.90977584       0.90977584      -0.90977584
C       -0.00465871       1.77757030       0.00794375
H       -0.66225468       2.44313916      -0.64384735
H        0.64322798       2.43503045       0.67728295
C       -1.78241447       0.00034974      -0.00472694
H       -2.45427497      -0.65498947       0.64260836
H       -2.43311707       0.67328779      -0.65473579
C       -0.91132561       0.90220522       0.91563759
C       -0.01476271      -0.02253852       1.78660255
H       -0.67934791      -0.69751639       2.42135241
H        0.63392994       0.61504881       2.47327442
C        0.01484550      -1.77751727      -0.01636693
H        0.67870853      -2.42144646      -0.68295456
H       -0.62264859      -2.45592969       0.64226336
C        1.78714474       0.01002794       0.00389507
H        2.44202412       0.67113390       0.66197326
H        2.45385902      -0.65136977      -0.64189061
C        0.91606151      -0.90478549       0.90901405
