194
Properties=species:S:1:pos:R:3 pbc="F F F"
C        1.79172352       1.79172352      -1.79172352
C        1.94277398       3.14411842      -1.48672350
C        2.76057475       3.94736416      -2.28640300
C        3.43232394       3.39164008      -3.38418869
C        3.25322995       2.03963719      -3.69891230
C        2.43817934       1.23770949      -2.89622473
C        4.32865875       4.26460141      -4.17940673
O        4.17060926       5.46711850      -4.28570897
O        5.37266869       3.50255545      -4.68720202
C        6.49620601       4.08880594      -5.31392413
C        7.00550577       5.32271381      -4.89553326
C        8.14721623       5.85126344      -5.50334423
C        8.78557979       5.14125935      -6.51747986
C        8.29134694       3.90826385      -6.93895966
C        7.15023441       3.37355493      -6.32732799
C        6.73247846       2.03602947      -6.79000926
N        6.24640745       1.14457999      -5.98588153
N        5.96310024      -0.06090870      -6.56890127
C        5.76629363      -1.24890631      -5.87002461
O        5.54310674      -2.27853921      -6.51078740
C        5.86711393      -1.21852182      -4.43383910
N        6.09557471      -0.10252268      -3.67415393
H        6.22376349       0.83983880      -4.03149161
N        6.15037500      -0.32654085      -2.35271318
C        5.97691772      -1.64951538      -2.24718072
C        6.01546309      -2.30538031      -0.92082123
C        5.79300817      -2.25021365      -3.51377083
H        1.43717056       3.57846259      -0.62780372
H        2.88332212       5.00073985      -2.03985139
H        3.74147465       1.59700074      -4.56283889
H        2.32272943       0.18314332      -3.13498736
H        6.53611202       5.88660186      -4.09368406
H        8.53302887       6.81146945      -5.16856196
H        8.81696687       3.35164455      -7.71114130
H        6.92661600       1.80812600      -7.85497165
H        5.96547249      -0.15591253      -7.57960548
H        5.61848249      -1.64585435      -0.14230222
H        7.04609651      -2.56540683      -0.65892378
H        5.41889414      -3.22287837      -0.92156061
H        5.64057867      -3.29692318      -3.74057244
C        9.98188777       5.67236962      -7.11778736
C       10.98379570       6.11717447      -7.62054489
Br      12.60379609       6.83638630      -8.43346130
C       -1.79172352      -1.79172352      -1.79172352
C       -2.28209329      -2.99830608      -1.29321652
C       -3.09994669      -3.79822007      -2.09617514
C       -3.43202789      -3.38286989      -3.39325492
C       -2.91309544      -2.18369822      -3.89498577
C       -2.09869734      -1.38391737      -3.08949886
C       -4.34112789      -4.23495364      -4.19658536
O       -4.42987847      -5.44068841      -4.05286984
O       -5.09015699      -3.42868314      -5.04358603
C       -6.18533105      -3.92905399      -5.78455105
C       -7.01420911      -4.93430445      -5.27523929
C       -8.11772717      -5.37197785      -6.01211888
C       -8.39920768      -4.79628883      -7.24882248
C       -7.58445380      -3.78992769      -7.76418896
C       -6.48085480      -3.34540940      -7.02485313
C       -5.70976285      -2.23406723      -7.61468710
N       -5.19229305      -1.29006577      -6.89451015
N       -4.55761434      -0.30781343      -7.60566504
C       -4.23550499       0.94925560      -7.10116254
O       -3.68631853       1.76073930      -7.84977571
C       -4.59177521       1.24747569      -5.73813170
N       -5.18558812       0.37960857      -4.86122642
H       -5.44896934      -0.57997761      -5.06614695
N       -5.42260213       0.88933275      -3.64327794
C       -4.98934109       2.15222596      -3.73746793
C       -5.11849975       3.07492589      -2.58733014
C       -4.46016481       2.42371271      -5.02011326
H       -2.04136084      -3.31932015      -0.28275588
H       -3.48836996      -4.73518806      -1.70035535
H       -3.13448584      -1.85885566      -4.90797278
H       -1.71839790      -0.44284167      -3.47962054
H       -6.82613660      -5.38567099      -4.30459035
H       -8.75426535      -6.15411511      -5.60467982
H       -7.83332113      -3.32924576      -8.71718583
H       -5.65957051      -2.21060114      -8.71954201
H       -4.36144435      -0.43406159      -8.59365951
H       -5.01649036       2.53942205      -1.63786206
H       -6.09844746       3.56261550      -2.60378149
H       -4.34756217       3.85095514      -2.62096934
H       -4.04814750       3.35330983      -5.38939027
C       -9.55703852      -5.22519032      -7.98981591
C      -10.52672185      -5.58439531      -8.61039790
Br     -12.09461779      -6.16519941      -9.61382650
C       -1.79172352       1.79172352       1.79172352
C       -2.22336724       1.31940692       3.03084174
C       -3.01919756       2.13218730       3.84295704
C       -3.37288932       3.41962930       3.41563409
C       -2.95798165       3.87496761       2.15883017
C       -2.15961780       3.06232980       1.35016596
C       -4.17738432       4.26961103       4.32567153
O       -4.95035491       3.82074993       5.15233188
O       -3.84000036       5.60112567       4.12130013
C       -4.28768873       6.63085365       4.98039370
C       -4.45369867       6.41716506       6.35288912
C       -4.85009391       7.46940433       7.18232565
C       -5.06664546       8.73506468       6.64260885
C       -4.89876956       8.96193922       5.27786167
C       -4.49590927       7.91009086       4.44511720
C       -4.28056560       8.25207453       3.02587705
N       -3.32916930       7.72541831       2.32228136
N       -3.23591042       8.19511304       1.04006935
C       -2.11778781       8.04561322       0.22401091
O       -2.14431863       8.53747039      -0.90643409
C       -0.97406832       7.35154153       0.75682137
N       -0.89839040       6.77321298       1.99560259
H       -1.63943589       6.76510679       2.69055122
N        0.27588905       6.18466728       2.26776910
C        1.00719806       6.41177945       1.17000167
C        2.40979909       5.94476947       1.09593363
C        0.27356206       7.13124102       0.19888638
H       -1.94005512       0.32793578       3.37544597
H       -3.34672923       1.76352369       4.81366045
H       -3.24632045       4.85809725       1.79689659
H       -1.82302242       3.43296054       0.38487716
H       -4.27260502       5.44340372       6.80038920
H       -4.97539064       7.28996661       8.24770303
H       -5.04260206       9.96177909       4.87537157
H       -4.93420783       9.04303623       2.61246960
H       -3.97840255       8.76448690       0.64627600
H        2.54467838       5.00996056       1.64964818
H        3.08049811       6.69736936       1.52274220
H        2.70790882       5.76753887       0.05794632
H        0.60364932       7.46397921      -0.77610196
C       -5.44119922       9.82538076       7.50546477
C       -5.75488799      10.73852047       8.22810661
Br      -6.26209620      12.21499015       9.39655734
C        1.79172352      -1.79172352       1.79172352
C        2.08817838      -1.39121000       3.09422752
C        2.88416484      -2.20521892       3.90495815
C        3.37348345      -3.42283993       3.41182933
C        3.09360777      -3.80376519       2.09440647
C        2.29485405      -2.99037250       1.28688701
C        4.17371642      -4.28118552       4.31776495
O        4.84251076      -3.84434914       5.23657682
O        3.96300720      -5.61318291       3.98623605
C        4.42724433      -6.67298728       4.79870447
C        4.47081825      -6.56052321       6.19241138
C        4.88817176      -7.64415103       6.96950110
C        5.24792902      -8.84129805       6.35509192
C        5.20299469      -8.96764187       4.96793389
C        4.77949891      -7.88462086       4.18699756
C        4.70094950      -8.12448354       2.73308415
N        3.76559749      -7.61548030       1.99579119
N        3.80846273      -7.98424331       0.67838677
C        2.74684059      -7.85344818      -0.21287684
O        2.89907581      -8.24760305      -1.37132392
C        1.51305850      -7.29393862       0.27543410
N        1.29669727      -6.82644890       1.54405979
H        1.97984946      -6.81924125       2.29600319
N        0.06092180      -6.35276380       1.76286173
C       -0.56411877      -6.54386816       0.59483367
C       -1.99062443      -6.17987394       0.44165449
C        0.29739707      -7.12373742      -0.36456914
H        1.69931228      -0.45560761       3.48851698
H        3.10596802      -1.89359936       4.92434598
H        3.48809746      -4.72927774       1.68393908
H        2.06379504      -3.30507663       0.27198844
H        4.17719503      -5.64321356       6.69598935
H        4.91734026      -7.54364179       8.05207822
H        5.45831905      -9.91737572       4.50405794
H        5.44661353      -8.82715826       2.31594187
H        4.62278140      -8.46159475       0.30478930
H       -2.24317002      -5.30647822       1.05162217
H       -2.62777968      -7.01351642       0.75387672
H       -2.22282471      -5.94126620      -0.60086511
H        0.07043499      -7.39949812      -1.38570519
C        5.64416754      -9.96715658       7.16072063
C        5.97601730     -10.91006309       7.83543468
Br       6.51259029     -12.43466318       8.92639022
C       -0.00445707       0.01189536      -1.78238275
H       -0.66409135       0.67374010      -2.43557963
H        0.65740317      -0.63156657      -2.45157240
C       -0.90989263      -0.90692880      -0.91072765
C        0.90977584       0.90977584      -0.90977584
C       -0.00465871       1.77757030       0.00794375
H       -0.66225468       2.44313916      -0.64384735
H        0.64322798       2.43503045       0.67728295
C       -1.78241447       0.00034974      -0.00472694
H       -2.45427497      -0.65498947       0.64260836
H       -2.43311707       0.67328779      -0.65473579
C       -0.91132561       0.90220522       0.91563759
C       -0.01476271      -0.02253852       1.78660255
H       -0.67934791      -0.69751639       2.42135241
H        0.63392994       0.61504881       2.47327442
C        0.01484550      -1.77751727      -0.01636693
H        0.67870853      -2.42144646      -0.68295456
H       -0.62264859      -2.45592969       0.64226336
C        1.78714474       0.01002794       0.00389507
H        2.44202412       0.67113390       0.66197326
H        2.45385902      -0.65136977      -0.64189061
C        0.91606151      -0.90478549       0.90901405
