109
Properties=species:S:1:pos:R:3 pbc="F F F"
C        0.00000000       0.00000000       0.00000000
C        0.88230448       0.88230448      -0.88230448
C        0.29081740       1.81513764      -1.73491894
C        1.09271674       2.62211890      -2.54230831
C        2.48116668       2.49253015      -2.49609768
C        3.06677296       1.55165176      -1.64111889
C        4.53317071       1.38219383      -1.59707142
N        5.31599342       2.10047904      -2.33725243
N        6.64057623       1.82233494      -2.23207806
C        7.63199278       2.52682206      -2.88855583
O        8.81434878       2.31402578      -2.62107572
C        7.29173837       3.55758924      -3.89817779
C        8.17187555       4.62278004      -4.06611248
N        7.98381283       5.63527929      -4.95207971
C        6.86647587       5.57133781      -5.71275783
C        5.94537953       4.53874403      -5.63443392
Br       4.41337404       4.52608849      -6.73472458
C        6.16765780       3.50795441      -4.72604470
C        2.26922432       0.74248260      -0.82847405
H       -0.79023087       1.92057082      -1.77804813
H        0.63728093       3.35038844      -3.20924868
H        3.09794554       3.12557067      -3.13043283
H        4.92661961       0.60745979      -0.91401831
H        6.96767527       1.15112522      -1.54413434
H        9.08064596       4.70044733      -3.47319282
H        6.73824444       6.39693355      -6.40596161
H        5.47412006       2.67433101      -4.67235187
H        2.71741892       0.00961841      -0.16329829
C       -0.88230448      -0.88230448      -0.88230448
C       -2.27083615      -0.78931580      -0.78072202
C       -3.07976654      -1.59334734      -1.58403007
C       -2.49857797      -2.48778253      -2.48343402
C       -1.10489650      -2.57805776      -2.57658935
C       -0.47141843      -3.53685389      -3.50416363
N       -1.18218191      -4.31144844      -4.26009454
N       -0.48129473      -5.17358347      -5.04011103
C       -1.05984497      -6.02723497      -5.96029072
O       -0.34844727      -6.66416015      -6.73684285
C       -2.53293874      -6.17085113      -6.04371553
C       -3.08869145      -6.49370303      -7.27837359
N       -4.41978822      -6.65416099      -7.49722263
C       -5.23077324      -6.49392495      -6.42587333
C       -4.76835050      -6.19655099      -5.15365599
Br      -5.96899613      -5.99180176      -3.71338923
C       -3.39887921      -6.04833809      -4.95443961
C       -0.28965251      -1.77386373      -1.77666473
H       -2.73105659      -0.09637696      -0.08095453
H       -4.16252077      -1.52568996      -1.50870733
H       -3.13784833      -3.11137634      -3.10472437
H        0.63332609      -3.56929724      -3.51212656
H        0.53244097      -5.12598598      -5.06938982
H       -2.46334774      -6.63343457      -8.15750380
H       -6.28921314      -6.62040675      -6.63151971
H       -3.01498445      -5.84676819      -3.95905031
H        0.79276991      -1.83966905      -1.84343648
C       -0.88230448       0.88230448       0.88230448
C       -0.96547939       2.25106857       0.62432601
C       -1.76940808       3.06001050       1.42772536
C       -2.48484023       2.49890813       2.48604615
C       -2.39301447       1.12566048       2.74086866
C       -3.12258528       0.51790413       3.87194655
N       -3.87082212       1.23162525       4.65127751
N       -4.45719249       0.56168204       5.67611470
C       -5.34215682       1.13671862       6.56849523
O       -5.94871912       0.42872798       7.37200317
C       -5.59211196       2.59787993       6.55751351
C       -6.84304451       3.04949132       6.96823224
N       -7.20696998       4.35775669       7.00644516
C       -6.26940240       5.25596725       6.62520186
C       -4.99024832       4.90371153       6.22459763
Br      -3.74240964       6.22140379       5.71037369
C       -4.63954363       3.55696215       6.20515113
C       -1.59165301       0.31009865       1.93842931
H       -0.40952199       2.69591812      -0.19705202
H       -1.83756469       4.12752484       1.23182853
H       -3.10811651       3.13821412       3.10761840
H       -2.98916643      -0.56822874       4.02716003
H       -4.36498946      -0.44704841       5.74499378
H       -7.61648564       2.35303811       7.28476236
H       -6.59008869       6.29261517       6.65843574
H       -3.63253298       3.26344710       5.92482286
H       -1.51531126      -0.75637324       2.13139760
C        0.88230448      -0.88230448       0.88230448
C        1.62832708      -0.30311961       1.90942728
C        2.43535797      -1.10501568       2.71677030
C        2.49528381      -2.48098534       2.49352536
C        1.74702251      -3.05390702       1.45861408
C        1.81718456      -4.50452485       1.19072654
N        2.56179304      -5.28561408       1.90631778
N        2.56828376      -6.59145255       1.53525292
C        3.24511741      -7.58469019       2.21756306
O        3.07578874      -8.76418368       1.90947786
C        4.15863160      -7.25215736       3.33671644
C        4.31772719      -8.19196449       4.35107639
N        5.12003492      -8.01774371       5.43339321
C        5.80298501      -6.85122098       5.49636552
C        5.72807525      -5.86705737       4.52342486
Br       6.71660920      -4.26911960       4.68845831
C        4.90704901      -6.07552189       3.41908601
C        0.93520914      -2.25653251       0.64843932
H        1.58848801       0.76836190       2.08826198
H        3.01952037      -0.65906990       3.51832779
H        3.12847188      -3.09775448       3.12772267
H        1.21567996      -4.88656591       0.34585184
H        1.95046934      -6.91503530       0.79743018
H        3.78622537      -9.14085109       4.32720965
H        6.42986990      -6.73607545       6.37519425
H        4.85958200      -5.33021265       2.63100828
H        0.35259626      -2.69483247      -0.15709311
