154
Properties=species:S:1:pos:R:3 pbc="F F F"
C        1.79140035       1.79140035      -1.79140035
C        2.58434300       1.21007798      -2.77934172
C        3.41313100       2.01451330      -3.56720836
C        3.42592742       3.40352386      -3.38580308
C        2.62064285       3.97835242      -2.39434552
C        1.80844946       3.17100356      -1.59234837
C        4.35997232       4.25743946      -4.17375790
N        4.65650389       4.16048411      -5.43358860
N        3.97605858       3.32432035      -6.25220149
C        4.45163229       2.91064898      -7.48488545
O        3.81460013       2.09565706      -8.15141718
C        5.77725556       3.38715556      -7.97562903
C        6.23362821       4.69645207      -7.77947348
C        7.50485080       5.07625799      -8.22081136
C        8.31018355       4.15337396      -8.88484362
C        7.85196921       2.85922521      -9.12649715
C        6.58356768       2.47866435      -8.67664476
C        5.08900261       5.35638229      -3.42354095
H        2.57867034       0.13340544      -2.93265908
H        4.06317387       1.54112921      -4.30009434
H        2.62081436       5.05258465      -2.22507677
H        1.20138372       3.62519359      -0.81281409
H        3.07933236       2.94448841      -5.96861177
H        5.61004914       5.43169535      -7.27821763
H        7.85310101       6.08913482      -8.03711464
H        8.47133784       2.14028057      -9.65583030
H        6.22964010       1.46642942      -8.86331184
H        5.06109460       5.20930643      -2.34180647
H        4.63147225       6.31834564      -3.67391333
H        6.13768178       5.37462778      -3.73696566
C        9.62510764       4.54132136      -9.32537904
C       10.72635656       4.86622731      -9.69432746
Br      12.50698293       5.39157275     -10.29088584
C       -1.79140035      -1.79140035      -1.79140035
C       -2.65457793      -1.20425497      -2.71492981
C       -3.48254365      -2.01056180      -3.50174721
C       -3.42505554      -3.40535586      -3.38484296
C       -2.54968688      -3.98560256      -2.45805135
C       -1.73775281      -3.17778992      -1.65625866
C       -4.35586187      -4.26593868      -4.16936913
N       -4.71476906      -4.12693513      -5.40887240
N       -4.11107221      -3.22438889      -6.21711933
C       -4.66147872      -2.77887405      -7.40681394
O       -4.09307950      -1.90624504      -8.06234982
C       -5.98600160      -3.29429504      -7.85974351
C       -6.37402864      -4.63085671      -7.70466842
C       -7.64626576      -5.04944262      -8.10621177
C       -8.52192050      -4.13643550      -8.69004513
C       -8.13350064      -2.81287976      -8.89131118
C       -6.86371574      -2.39405075      -8.48111030
C       -4.99953509      -5.42993759      -3.43945317
H       -2.70396821      -0.12273190      -2.81803475
H       -4.18643583      -1.53582450      -4.18213709
H       -2.49417251      -5.06514397      -2.33915929
H       -1.07542995      -3.63745048      -0.92651097
H       -3.21990202      -2.81619976      -5.95633077
H       -5.69568121      -5.35783471      -7.26644620
H       -7.94016543      -6.08460998      -7.95457507
H       -8.80822881      -2.10072104      -9.35849886
H       -6.56426027      -1.35912735      -8.63599373
H       -4.92784750      -5.33000295      -2.35435705
H       -4.51181018      -6.35745222      -3.75446881
H       -6.05982229      -5.48304088      -3.70641205
C       -9.83736870      -4.56521711      -9.08922223
C      -10.93905657      -4.92432170      -9.42353305
Br     -12.72039268      -5.50496346      -9.96408538
C       -1.79140035       1.79140035       1.79140035
C       -1.66413553       3.17810167       1.73152550
C       -2.45112785       3.98407993       2.55964488
C       -3.38605351       3.40308192       3.42611893
C       -3.51043824       2.00876424       3.47413830
C       -2.70774009       1.20265245       2.66140885
C       -4.17600216       4.25347898       4.36168855
N       -4.73028474       5.40161663       4.11867523
N       -4.79390732       5.89779736       2.86087574
C       -5.03643737       7.23146776       2.57926158
O       -5.01447975       7.63146492       1.41572968
C       -5.24475131       8.20638284       3.68890601
C       -5.96695651       7.89503220       4.84756505
C       -6.09196725       8.83306609       5.87688680
C       -5.51807600      10.09476717       5.73555797
C       -4.83398081      10.43430323       4.56940753
C       -4.70259427       9.49174016       3.54454236
C       -4.33322478       3.75104745       5.78465362
H       -0.94535525       3.64043496       1.05894464
H       -2.30494790       5.06199873       2.53745079
H       -4.22001396       1.53208439       4.14637742
H       -2.79872138       0.12062856       2.72004146
H       -4.63759342       5.29335958       2.06147955
H       -6.43424907       6.92106129       4.96465175
H       -6.63387932       8.56544853       6.78002263
H       -4.39642758      11.42163973       4.44938139
H       -4.16471832       9.75811887       2.63654416
H       -3.61051364       2.97039689       6.03129697
H       -5.34848110       3.36320686       5.91204326
H       -4.18563006       4.58286192       6.48078324
C       -5.63451696      11.05464969       6.80264140
C       -5.73203626      11.85855130       7.69632377
Br      -5.88971673      13.15839221       9.14133259
C        1.79140035      -1.79140035       1.79140035
C        1.58982284      -3.17038460       1.81355527
C        2.37807082      -3.97419148       2.64259036
C        3.38735234      -3.40097071       3.42693131
C        3.58580627      -2.01484564       3.39268888
C        2.78273916      -1.20926006       2.57980217
C        4.18209599      -4.24369843       4.36537526
N        4.66249513      -5.43123286       4.15684861
N        4.63207774      -5.99425638       2.92624631
C        4.78994713      -7.35186088       2.70535870
O        4.68426261      -7.80946803       1.56794372
C        5.00772795      -8.27820540       3.85410681
C        5.80686590      -7.94727537       4.95541249
C        5.93911456      -8.83645499       6.02635059
C        5.29417756     -10.07072975       5.98349382
C        4.53118429     -10.43222161       4.87428567
C        4.39305300      -9.53794974       3.80787405
C        4.44203072      -3.67792870       5.74896643
H        0.81272168      -3.62702575       1.20498743
H        2.17558050      -5.04229141       2.68652552
H        4.35444901      -1.54341589       4.00061087
H        2.93237592      -0.13219222       2.57482326
H        4.46391937      -5.42419557       2.10431761
H        6.32936797      -6.99538324       4.99521091
H        6.54233604      -8.55250420       6.88451023
H        4.03749016     -11.39920829       4.83075026
H        3.79365606      -9.82113476       2.94459053
H        3.77494620      -2.84751686       5.98974445
H        5.48133220      -3.33975049       5.80264853
H        4.28981441      -4.46354256       6.49591825
C        5.41880594     -10.97928651       7.09371559
C        5.52318221     -11.74020280       8.02352632
Br       5.69194980     -12.97054009       9.52695163
C       -0.00445707       0.01189536      -1.78238275
H       -0.66409135       0.67374010      -2.43557963
H        0.65740317      -0.63156657      -2.45157240
C       -0.90989263      -0.90692880      -0.91072765
C        0.90977584       0.90977584      -0.90977584
C       -0.00465871       1.77757030       0.00794375
H       -0.66225468       2.44313916      -0.64384735
H        0.64322798       2.43503045       0.67728295
C       -1.78241447       0.00034974      -0.00472694
H       -2.45427497      -0.65498947       0.64260836
H       -2.43311707       0.67328779      -0.65473579
C       -0.91132561       0.90220522       0.91563759
C       -0.01476271      -0.02253852       1.78660255
H       -0.67934791      -0.69751639       2.42135241
H        0.63392994       0.61504881       2.47327442
C        0.01484550      -1.77751727      -0.01636693
H        0.67870853      -2.42144646      -0.68295456
H       -0.62264859      -2.45592969       0.64226336
C        1.78714474       0.01002794       0.00389507
H        2.44202412       0.67113390       0.66197326
H        2.45385902      -0.65136977      -0.64189061
C        0.91606151      -0.90478549       0.90901405
