125
Properties=species:S:1:pos:R:3 pbc="F F F"
C        0.00000000       0.00000000       0.00000000
C        0.88149632       0.88149632      -0.88149632
C        1.67443898       0.30017396      -1.86943769
C        2.50322697       1.10460928      -2.65730434
C        2.51602340       2.49361983      -2.47589906
C        1.71073882       3.06844839      -1.48444149
C        0.89854543       2.26109954      -0.68244434
C        3.45006830       3.34753544      -3.26385387
N        3.74659986       3.25058008      -4.52368458
N        3.06615456       2.41441633      -5.34229747
C        3.54172826       2.00074495      -6.57498142
O        2.90469610       1.18575304      -7.24151315
C        4.86735154       2.47725154      -7.06572501
C        5.32372419       3.78654805      -6.86956946
C        6.59494677       4.16635397      -7.31090733
C        7.40027953       3.24346994      -7.97493960
Br       9.12637711       3.75272753      -8.55322935
C        6.94206519       1.94932118      -8.21659313
C        5.67366366       1.56876032      -7.76674073
C        4.17909859       4.44647827      -2.51363692
H        1.66876631      -0.77649859      -2.02275506
H        3.15326985       0.63122519      -3.39019031
H        1.71091033       4.14268062      -1.31517274
H        0.29147970       2.71528957       0.09708994
H        2.16942834       2.03458439      -5.05870775
H        4.70014511       4.52179132      -6.36831360
H        6.94319698       5.17923080      -7.12721062
H        7.56143382       1.23037654      -8.74592627
H        5.31973608       0.55652539      -7.95340781
H        4.15119058       4.29940240      -1.43190245
H        3.72156822       5.40844161      -2.76400931
H        5.22777776       4.46472375      -2.82706163
C       -0.88149632      -0.88149632      -0.88149632
C       -0.93326465      -2.25580762      -0.65497836
C       -1.71809278      -3.06659029      -1.48045751
C       -2.47386048      -2.49787834      -2.51380346
C       -2.41961138      -1.11491029      -2.72910704
C       -1.61759097      -0.30761003      -1.91688832
C       -3.25531194      -3.36537925      -3.44076642
N       -3.96998786      -4.40723369      -3.14364297
N       -4.23151589      -4.73480129      -1.85655118
C       -4.66576860      -5.98902563      -1.46266040
O       -4.82072432      -6.24269863      -0.26853935
C       -4.86980995      -7.06444346      -2.47607468
C       -5.41698147      -6.82095497      -3.74190525
C       -5.54310916      -7.85922425      -4.66987466
C       -5.14787922      -9.14910297      -4.32170687
Br      -5.30045625     -10.54765997      -5.58421777
C       -4.64258736      -9.41529774      -3.05009440
C       -4.50912551      -8.37380780      -2.12623141
C       -3.19276234      -3.02780836      -4.91864308
H       -0.35485401      -2.70769001       0.14752124
H       -1.70906041      -4.14304842      -1.32257652
H       -2.98721420      -0.64984285      -3.53170664
H       -1.56768485       0.76236837      -2.10436285
H       -4.09041922      -4.05730621      -1.11499505
H       -5.74515023      -5.82355843      -4.02154138
H       -5.94580604      -7.64714480      -5.65668756
H       -4.34571899     -10.42225998      -2.76975766
H       -4.11078930      -8.58362484      -1.13525514
H       -2.35680949      -2.36730302      -5.15838291
H       -4.13244779      -2.54982015      -5.21175121
H       -3.07340310      -3.95012479      -5.49603525
C       -0.88149632       0.88149632       0.88149632
C       -2.25354208       0.94581483       0.64469372
C       -3.05627450       1.77523802       1.43362807
C       -2.49002509       2.51736427       2.47815293
C       -1.11107507       2.44085695       2.71169669
C       -0.30574731       1.62790968       1.90843233
C       -3.32897208       3.45699260       3.27549293
N       -4.53397723       3.26788100       3.71900628
N       -5.12788278       2.05400678       3.64097879
C       -6.49452571       1.86550699       3.75742193
O       -6.97864325       0.74389514       3.60942390
C       -7.39609875       3.03257660       3.98165273
C       -7.05807881       4.10341333       4.81834955
C       -7.92225180       5.19396257       4.95599370
C       -9.13951340       5.20100146       4.27817420
Br     -10.29771716       6.68503620       4.44958064
C       -9.50924767       4.12214356       3.47658827
C       -8.63971045       3.03613467       3.33331959
C       -2.73447820       4.81769025       3.58704533
H       -2.70492646       0.37016297      -0.16006665
H       -4.11706075       1.85302134       1.20460325
H       -0.64470279       3.01568801       3.50837289
H        0.76643160       1.59019350       2.08591743
H       -4.57515085       1.22177384       3.46579578
H       -6.11980407       4.10407176       5.36637421
H       -7.63227297       6.02818985       5.58917558
H      -10.46347521       4.11740368       2.95685775
H       -8.92916007       2.19666687       2.70384235
H       -1.88050655       5.05346082       2.94852805
H       -2.42296396       4.83517866       4.63587653
H       -3.49598961       5.58912445       3.43444910
C        0.88149632      -0.88149632       0.88149632
C        0.56026240      -1.05746232       2.22632592
C        1.38361735      -1.84136954       3.04015370
C        2.51182437      -2.47283894       2.50087897
C        2.82234397      -2.29454289       1.14674186
C        2.01056847      -1.49285029       0.33867056
C        3.43168295      -3.25045523       3.37931943
N        3.11655596      -4.06452923       4.33977933
N        1.83356887      -4.44402942       4.54527006
C        1.38472838      -5.00303060       5.72969565
O        0.19118357      -5.26399415       5.87678457
C        2.33002333      -5.21660337       6.86370138
C        3.64929913      -5.64930336       6.68123921
C        4.50622373      -5.78871443       7.77726991
C        4.03506236      -5.52247961       9.06114709
Br       5.20044230      -5.69213673      10.53975497
C        2.71167536      -5.13362367       9.26268048
C        1.85849175      -4.98636849       8.16430448
C        4.92072175      -3.05410757       3.16438446
H       -0.31598122      -0.57633610       2.65466790
H        1.14753932      -1.92847964       4.09866638
H        3.69879794      -2.76388008       0.70608568
H        2.27096616      -1.34549492      -0.70678175
H        1.13453382      -4.30451054       3.82367612
H        4.02575258      -5.87683843       5.68765903
H        5.53444710      -6.10055988       7.61463142
H        2.33628840      -4.93801154      10.26343669
H        0.82663642      -4.67898404       8.32404883
H        5.14149219      -2.15360181       2.58740143
H        5.32079772      -3.92947535       2.64374608
H        5.41824035      -2.96586452       4.13545828
