146
Properties=species:S:1:pos:R:3 pbc="F F F"
C        1.79140035       1.79140035      -1.79140035
C        2.58434300       1.21007798      -2.77934172
C        3.41313100       2.01451330      -3.56720836
C        3.42592742       3.40352386      -3.38580308
C        2.62064285       3.97835242      -2.39434552
C        1.80844946       3.17100356      -1.59234837
C        4.35997232       4.25743946      -4.17375790
N        4.65650389       4.16048411      -5.43358860
N        3.97605858       3.32432035      -6.25220149
C        4.45163229       2.91064898      -7.48488545
O        3.81460013       2.09565706      -8.15141718
C        5.77725556       3.38715556      -7.97562903
C        6.23362821       4.69645207      -7.77947348
C        7.50485080       5.07625799      -8.22081136
C        8.31018355       4.15337396      -8.88484362
Br      10.03628114       4.66263155      -9.46313338
C        7.85196921       2.85922521      -9.12649715
C        6.58356768       2.47866435      -8.67664476
C        5.08900261       5.35638229      -3.42354095
H        2.57867034       0.13340544      -2.93265908
H        4.06317387       1.54112921      -4.30009434
H        2.62081436       5.05258465      -2.22507677
H        1.20138372       3.62519359      -0.81281409
H        3.07933236       2.94448841      -5.96861177
H        5.61004914       5.43169535      -7.27821763
H        7.85310101       6.08913482      -8.03711464
H        8.47133784       2.14028057      -9.65583030
H        6.22964010       1.46642942      -8.86331184
H        5.06109460       5.20930643      -2.34180647
H        4.63147225       6.31834564      -3.67391333
H        6.13768178       5.37462778      -3.73696566
C       -1.79140035      -1.79140035      -1.79140035
C       -2.85732485      -1.22671382      -2.48972403
C       -3.68182572      -2.03896417      -3.27406277
C       -3.42147387      -3.41113336      -3.38264712
C       -2.34403110      -3.96761904      -2.68169064
C       -1.53311323      -3.15836716      -1.88032099
C       -4.33905955      -4.29270261      -4.15940751
N       -4.90034059      -4.04672841      -5.30350760
N       -4.55451137      -2.96215880      -6.03591025
C       -5.33645196      -2.45233213      -7.05838262
O       -4.99760859      -1.42286750      -7.64119828
C       -6.63430622      -3.10101645      -7.40471749
C       -6.81197064      -4.49005850      -7.40752463
C       -8.06361953      -5.04272488      -7.69557573
C       -9.13276807      -4.20626271      -8.00937036
Br     -10.82906976      -4.95402138      -8.37895493
C       -8.96011658      -2.82373190      -8.05384310
C       -7.70956399      -2.27236082      -7.75695198
C       -4.70124915      -5.62895075      -3.53872595
H       -3.06583786      -0.16181594      -2.41708106
H       -4.53928185      -1.59215414      -3.77296143
H       -2.12734952      -5.03173688      -2.73938937
H       -0.71074172      -3.60341889      -1.32523079
H       -3.69626011      -2.45973659      -5.83643585
H       -5.98327255      -5.15544981      -7.18123975
H       -8.18986418      -6.12172028      -7.66776601
H       -9.78776750      -2.16842621      -8.31125499
H       -7.57834918      -1.19231340      -7.78871878
H       -4.47685409      -5.66476772      -2.47058568
H       -4.14872163      -6.41963462      -4.05537496
H       -5.77337021      -5.80904594      -3.66685907
C       -1.79140035       1.79140035       1.79140035
C       -1.55835826       3.16429819       1.85110626
C       -2.34721624       3.96714685       2.68048958
C       -3.38797871       3.40004170       3.42723395
C       -3.61777708       2.02021396       3.35534975
C       -2.81453454       1.21485839       2.54240846
C       -4.18503055       4.23939724       4.36674189
N       -4.63254499       5.44257814       4.17545347
N       -4.55970317       6.03321407       2.95966319
C       -4.68061283       7.39897038       2.76758349
O       -4.53722119       7.88028483       1.64416835
C       -4.90408844       8.30324729       3.93270443
C       -5.73673854       7.96590988       5.00690535
C       -5.87373999       8.83281525       6.09536490
C       -5.19940396      10.05202933       6.09696784
Br      -5.36988487      11.21399707       7.57816413
C       -4.40197859      10.42095716       5.01475583
C       -4.25932422       9.54871675       3.93083582
C       -4.49097294       3.64792576       5.73002715
H       -0.75655118       3.61633062       1.27185307
H       -2.12101881       5.02880416       2.75457445
H       -4.41145934       1.55321456       3.93380187
H       -2.98904512       0.14207134       2.50827494
H       -4.38531796       5.47859707       2.12851752
H       -6.28206047       7.02607440       5.01182725
H       -6.50369289       8.54342177       6.93223581
H       -3.88500810      11.37665249       5.00578812
H       -3.63308942       9.83755535       3.08873658
H       -3.84933126       2.79646834       5.96640790
H       -5.53885019       3.33345894       5.75142209
H       -4.33835580       4.41208503       6.49883438
C        1.79140035      -1.79140035       1.79140035
C        1.41783750      -3.10985185       2.04607335
C        2.21017736      -3.90804547       2.87662983
C        3.39151541      -3.39555316       3.42818579
C        3.76113313      -2.07120637       3.16100129
C        2.95692129      -1.26694778       2.34793232
C        4.20156396      -4.21864030       4.37096543
N        4.48672217      -5.48169345       4.28216097
N        4.19919674      -6.18897897       3.16440472
C        4.14427243      -7.57197080       3.13092348
O        3.81065616      -8.15253463       2.09848357
C        4.40949184      -8.36316237       4.36738595
C        5.40088152      -8.01541855       5.29325369
C        5.57543708      -8.76747897       6.45900409
C        4.77640415      -9.88608184       6.68591514
Br       5.00016238     -10.89003472       8.27184896
C        3.81528128     -10.27022623       5.75218407
C        3.63630092      -9.51170428       4.59087159
C        4.73733553      -3.52318003       5.60841030
H        0.50557396      -3.52003682       1.61912409
H        1.87941123      -4.91882753       3.10615865
H        4.66693272      -1.64534281       3.58620024
H        3.24289192      -0.23438635       2.16211314
H        3.98528222      -5.71192580       2.29522454
H        6.04273669      -7.15562273       5.12160269
H        6.33224430      -8.46802436       7.17908182
H        3.19913791     -11.14962136       5.91868943
H        2.88257353      -9.81164805       3.86515977
H        4.22760218      -2.57796283       5.80664249
H        5.80798729      -3.34056716       5.47517676
H        4.59797753      -4.17321551       6.47808217
C       -0.00445707       0.01189536      -1.78238275
H       -0.66409135       0.67374010      -2.43557963
H        0.65740317      -0.63156657      -2.45157240
C       -0.90989263      -0.90692880      -0.91072765
C        0.90977584       0.90977584      -0.90977584
C       -0.00465871       1.77757030       0.00794375
H       -0.66225468       2.44313916      -0.64384735
H        0.64322798       2.43503045       0.67728295
C       -1.78241447       0.00034974      -0.00472694
H       -2.45427497      -0.65498947       0.64260836
H       -2.43311707       0.67328779      -0.65473579
C       -0.91132561       0.90220522       0.91563759
C       -0.01476271      -0.02253852       1.78660255
H       -0.67934791      -0.69751639       2.42135241
H        0.63392994       0.61504881       2.47327442
C        0.01484550      -1.77751727      -0.01636693
H        0.67870853      -2.42144646      -0.68295456
H       -0.62264859      -2.45592969       0.64226336
C        1.78714474       0.01002794       0.00389507
H        2.44202412       0.67113390       0.66197326
H        2.45385902      -0.65136977      -0.64189061
C        0.91606151      -0.90478549       0.90901405
