194
Properties=species:S:1:pos:R:3 pbc="F F F"
C        1.79162938       1.79162938      -1.79162938
C        3.16050854       1.53938201      -1.87437867
C        3.97136833       2.33945914      -2.68757727
C        3.40925160       3.39549118      -3.41426501
C        2.03288377       3.64704016      -3.31181715
C        1.22319021       2.84253006      -2.50662069
C        4.21487990       4.28002083      -4.30834482
O        3.79745155       5.41179259      -4.55591897
C        5.48904437       3.75489069      -4.93664966
S        5.05546926       2.65577938      -6.31539069
C        6.63398803       2.26097858      -6.91876049
N        7.74430883       2.51954018      -6.27102630
N        8.77101596       1.93677976      -6.95406610
C        8.28780521       1.34414090      -8.03431107
C        9.13916032       0.73055143      -9.06250120
C       10.29650641       0.04098444      -8.66196778
C       11.15086996      -0.53788757      -9.60475836
C       10.85797349      -0.42751288     -10.95918363
Br      12.00669715      -1.21397630     -12.23813121
C        9.72794046       0.26947281     -11.38137050
C        8.88202403       0.85818265     -10.43537444
N        6.89564287       1.48023108      -8.03452172
C        5.96704541       0.90521751      -8.94449964
C        6.11664833      -0.43079405      -9.34243500
C        5.22190090      -0.98905241     -10.25698923
C        4.18319327      -0.21983037     -10.77909885
C        4.03162108       1.10828489     -10.38439551
C        4.91790197       1.67337281      -9.46528539
H        3.60621200       0.72400478      -1.30893250
H        5.03449677       2.12102930      -2.71943504
H        1.58281513       4.46781334      -3.86900506
H        0.15660025       3.04558031      -2.44669486
H        6.11536904       3.25288273      -4.19557641
H        6.05902921       4.61282551      -5.31148617
H       10.54342537      -0.03947796      -7.60384166
H       12.04173300      -1.06251441      -9.26788429
H        9.50115992       0.37001620     -12.43936475
H        8.02558270       1.42408763     -10.79616009
H        6.90304229      -1.06295983      -8.93565597
H        5.33260354      -2.02741087     -10.56061398
H        3.49009255      -0.65617609     -11.49408972
H        3.22486842       1.70826414     -10.79897123
H        4.79251868       2.72335564      -9.20932722
C       -1.79162938      -1.79162938      -1.79162938
C       -2.98497096      -2.30466088      -1.28463738
C       -3.80052237      -3.10635926      -2.09152310
C       -3.41633005      -3.39691414      -3.40576360
C       -2.20677015      -2.88558241      -3.89938853
C       -1.39784482      -2.07850284      -3.09599330
C       -4.24440834      -4.23596394      -4.32287326
O       -3.69133602      -4.81603206      -5.25779503
C       -5.74415352      -4.31131958      -4.12511162
S       -6.49730323      -2.78113035      -4.74820576
C       -8.17970449      -3.12986071      -4.50416190
N       -8.61565512      -4.13515997      -3.78406023
N       -9.97003443      -4.01500130      -3.67682608
C      -10.36260625      -2.94850563      -4.35514531
C      -11.77557417      -2.60005604      -4.55658273
C      -12.68311638      -2.81184830      -3.50449395
C      -14.04144327      -2.51931103      -3.65698645
C      -14.50617389      -2.01662139      -4.86684897
Br     -16.34118416      -1.61332562      -5.07634228
C      -13.62923579      -1.81841549      -5.93113250
C      -12.27264557      -2.12419609      -5.77873946
N       -9.23270138      -2.30586402      -4.87183026
C       -9.18042311      -1.06778594      -5.56855353
C       -9.93667731       0.02131788      -5.11292985
C       -9.90794729       1.22956770      -5.81145812
C       -9.13303758       1.35408631      -6.96351047
C       -8.37949914       0.27323454      -7.41803688
C       -8.39699513      -0.93724313      -6.72232191
H       -3.28838712      -2.08799299      -0.26276917
H       -4.71706191      -3.49753950      -1.66035970
H       -1.89378650      -3.10674409      -4.91910295
H       -0.46840384      -1.68239390      -3.49807767
H       -5.99430314      -4.49233627      -3.07718879
H       -6.11747879      -5.16821305      -4.69764904
H      -12.33234222      -3.21880285      -2.55664399
H      -14.72269330      -2.69624575      -2.82816384
H      -13.98926386      -1.43800942      -6.88326759
H      -11.61798080      -1.99038188      -6.63746776
H      -10.53302684      -0.03774488      -4.20496671
H      -10.48832523       2.07722307      -5.45470450
H       -9.11554596       2.29516574      -7.50762596
H       -7.78170132       0.37085428      -8.32125676
H       -7.82709466      -1.77089687      -7.12721002
C       -1.79162938       1.79162938       1.79162938
C       -1.53690253       1.87751034       3.15985635
C       -2.33698422       2.69072974       3.97069079
C       -3.39550092       3.41429153       3.40921534
C       -3.64950576       3.30869894       2.03353638
C       -2.84500433       2.50349247       1.22384416
C       -4.28020121       4.30821883       4.21482551
O       -5.41325236       4.55280235       3.79910840
C       -3.75382962       4.93999661       5.48675849
S       -2.65822320       6.32001460       5.04840154
C       -2.26154522       6.92719424       6.62498764
N       -2.51671245       6.28110951       7.73705336
N       -1.93329387       6.96725497       8.76131297
C       -1.34367689       8.04770519       8.27487510
C       -0.73043463       9.07872029       9.12305803
C       -0.03786382       8.68175507      10.27983974
C        0.54083196       9.62730980      11.13126291
C        0.42727522      10.98095109      10.83596838
Br       1.21347975      12.26363083      11.98070098
C       -0.27270342      11.39960815       9.70647220
C       -0.86121450      10.45084530       8.86352131
N       -1.48245222       8.04496290       6.88298054
C       -0.91099050       8.95425197       5.95152010
C        0.42453562       9.35505191       6.09777298
C        0.97929864      10.26895036       5.20018601
C        0.20706696      10.78756696       4.16196175
C       -1.12057291      10.39001046       4.01371811
C       -1.68217301       9.47152659       4.90286057
H       -0.71957589       1.31450036       3.60507303
H       -2.11656616       2.72506327       5.03333168
H       -4.47222079       3.86343185       1.58398089
H       -3.04999529       2.44111396       0.15776617
H       -3.24918329       4.20110483       6.11354008
H       -4.61138623       5.31427844       6.05767622
H        0.04511944       7.62426528      10.52864323
H        1.06782619       9.29317055      12.02175853
H       -0.37572850      12.45696626       9.47784612
H       -1.42946655      10.80888295       8.00748092
H        1.05900198       8.95101349       6.88372693
H        2.01727998      10.57479074       5.30829590
H        0.64069242      11.50205734       3.46664125
H       -1.72290721      10.80186828       3.20732830
H       -2.73189911       9.21330183       4.78000061
C        1.79162938      -1.79162938       1.79162938
C        1.20476436      -2.63701237       2.73249249
C        2.00818954      -3.45311006       3.53710513
C        3.40080186      -3.41755995       3.40064598
C        3.97936631      -2.55279498       2.45957979
C        3.17612300      -1.74508327       1.65113468
C        4.31484650      -4.26936330       4.21903575
O        5.47777802      -3.90068317       4.38670191
C        3.81825048      -5.58816827       4.77416597
S        3.77922532      -6.81305631       3.43435770
C        3.27919470      -8.22694716       4.30758524
N        2.80816629      -8.19585303       5.53085600
N        2.37068648      -9.44984598       5.84132935
C        2.59984540     -10.25230558       4.81410620
C        2.36902364     -11.70248574       4.86070356
C        1.25084361     -12.18928357       5.55933145
C        1.00317748     -13.56180570       5.65275757
C        1.87596682     -14.46167700       5.05200043
Br       1.54224523     -16.31869747       5.16990935
C        3.00263907     -14.00387173       4.37227297
C        3.25390334     -12.63003495       4.29164282
N        3.14344438      -9.49767475       3.76927653
C        3.43861680      -9.93044908       2.44769669
C        2.52607971     -10.74256119       1.75964837
C        2.82643979     -11.19108859       0.47230934
C        4.03355602     -10.83744922      -0.12854350
C        4.94204069     -10.02938145       0.55287934
C        4.64745921      -9.57074333       1.83835763
H        0.12363028      -2.66694968       2.84856932
H        1.51779335      -4.09075783       4.26640993
H        5.06195684      -2.51232929       2.34534740
H        3.64092723      -1.08799712       0.91995106
H        2.84172007      -5.47212121       5.24998692
H        4.51888273      -5.91205940       5.55239876
H        0.56795570     -11.49373148       6.04610188
H        0.13278161     -13.91172667       6.20259460
H        3.69524785     -14.70335422       3.91193881
H        4.15883169     -12.30398237       3.78301637
H        1.56644263     -11.01663916       2.19265664
H        2.11605478     -11.81489280      -0.06514092
H        4.26645249     -11.19135163      -1.12979794
H        5.88625726      -9.76117455       0.08467199
H        5.39612105      -8.97395518       2.35512532
C       -0.00445707       0.01189536      -1.78238275
H       -0.66409135       0.67374010      -2.43557963
H        0.65740317      -0.63156657      -2.45157240
C       -0.90989263      -0.90692880      -0.91072765
C        0.90977584       0.90977584      -0.90977584
C       -0.00465871       1.77757030       0.00794375
H       -0.66225468       2.44313916      -0.64384735
H        0.64322798       2.43503045       0.67728295
C       -1.78241447       0.00034974      -0.00472694
H       -2.45427497      -0.65498947       0.64260836
H       -2.43311707       0.67328779      -0.65473579
C       -0.91132561       0.90220522       0.91563759
C       -0.01476271      -0.02253852       1.78660255
H       -0.67934791      -0.69751639       2.42135241
H        0.63392994       0.61504881       2.47327442
C        0.01484550      -1.77751727      -0.01636693
H        0.67870853      -2.42144646      -0.68295456
H       -0.62264859      -2.45592969       0.64226336
C        1.78714474       0.01002794       0.00389507
H        2.44202412       0.67113390       0.66197326
H        2.45385902      -0.65136977      -0.64189061
C        0.91606151      -0.90478549       0.90901405
