145
Properties=species:S:1:pos:R:3 pbc="F F F"
C        0.00000000       0.00000000       0.00000000
C        0.88198434       0.88198434      -0.88198434
C        1.60477198       0.30766218      -1.92796950
C        2.40447559       1.11365997      -2.74163586
C        2.48400392       2.48800280      -2.49367047
C        1.76528182       3.05929171      -1.43986892
C        0.95668308       2.25278818      -0.63494174
C        3.33038555       3.31679396      -3.37436110
N        3.67272054       4.52484770      -3.05811051
C        4.48572012       5.26041041      -3.94105260
C        4.25861595       6.64602066      -4.02273279
C        5.00862213       7.48679869      -4.86174959
C        5.98911530       6.85382033      -5.60976291
O        6.84122872       7.41534305      -6.51402671
C        7.60238818       6.35826067      -6.97245087
N        7.29121174       5.20308702      -6.41283045
C        6.26829560       5.50212366      -5.55221758
C        5.52583455       4.68467391      -4.69189854
C        8.61214325       6.68037874      -7.99058676
C        8.75961241       8.01991112      -8.41298132
C        9.70292675       8.39014231      -9.37731135
C       10.52543870       7.42761226      -9.94610364
C       10.40210649       6.09816369      -9.55190050
C        9.45549644       5.72091640      -8.58408895
Br       9.42151321       3.86078574      -8.17210667
H        1.55216586      -0.76182398      -2.11658594
H        2.96751455       0.65907069      -3.55296526
H        1.82432713       4.12855329      -1.24930277
H        0.39174394       2.70294792       0.17754040
H        3.65066191       2.83879499      -4.31675642
H        3.47086178       7.08149216      -3.40912240
H        4.83112672       8.55134320      -4.92393872
H        5.76749916       3.63236089      -4.62696244
H        8.13291562       8.80453578      -7.99043393
H        9.79091273       9.43097609      -9.67922868
H       11.26137842       7.70836112     -10.69497864
H       11.05225937       5.35314145     -10.00676476
C       -0.88198434      -0.88198434      -0.88198434
C       -1.12924709      -2.20311341      -0.50804316
C       -1.94314217      -3.00856842      -1.30806083
C       -2.49362896      -2.48810132      -2.48394692
C       -2.23738410      -1.16670538      -2.86035298
C       -1.43276232      -0.35947708      -2.05217359
C       -3.35646056      -3.35927382      -3.30580624
N       -3.67729217      -3.05546531      -4.52292126
C       -4.50065761      -3.93240960      -5.25411592
C       -5.40853001      -3.35737993      -6.16145945
C       -6.27722860      -4.12772001      -6.95222181
C       -6.18070971      -5.49890429      -6.77308455
O       -6.91079266      -6.47377625      -7.38602957
C       -6.42707182      -7.65250177      -6.85352612
N       -5.45546559      -7.47501326      -5.97665037
C       -5.29341216      -6.11629580      -5.91292887
C       -4.41898070      -5.33233629      -5.15109001
C       -7.06004678      -8.88864676      -7.33441521
C       -8.08217213      -8.80495568      -8.30537704
C       -8.72221059      -9.94476445      -8.80340537
C       -8.35584883     -11.20145207      -8.34185369
C       -7.35313155     -11.31607076      -7.38296837
C       -6.70758198     -10.17406232      -6.87885750
Br      -5.36672293     -10.51825269      -5.56943000
H       -0.69455174      -2.61281085       0.40043477
H       -2.12908313      -4.03809085      -1.01237652
H       -2.66838619      -0.76092096      -3.77287603
H       -1.24408359       0.67071345      -2.34378131
H       -3.70792043      -4.28362601      -2.81466687
H       -5.43568191      -2.27225597      -6.25353845
H       -6.97527395      -3.68331168      -7.64782301
H       -3.70495903      -5.82037072      -4.50149274
H       -8.39815935      -7.83696101      -8.69276497
H       -9.50487625      -9.84473252      -9.55150874
H       -8.84802645     -12.09137050      -8.72532124
H       -7.07637819     -12.30725311      -7.02853429
C       -0.88198434       0.88198434       0.88198434
C       -2.26993183       0.81007661       0.76039522
C       -3.07858278       1.60870572       1.57248291
C       -2.49031212       2.48306868       2.49229640
C       -1.09936945       2.55902653       2.60604648
C       -0.29298371       1.75038007       1.80104921
C       -3.36917360       3.30917244       3.34319458
N       -2.92038949       4.32250662       4.01278264
C       -3.81280231       5.07198382       4.80239701
C       -3.31576096       5.60733066       6.00427777
C       -4.10672597       6.37751052       6.87293394
C       -5.41721284       6.57092388       6.46456182
O       -6.40246315       7.25143277       7.11670256
C       -7.50355169       7.13855924       6.29098879
N       -7.26556509       6.45593319       5.18563094
C       -5.95019293       6.08683298       5.28561092
C       -5.13914845       5.34177789       4.42148067
C       -8.73818460       7.77875688       6.76616727
C       -8.72272059       8.47498311       7.99480115
C       -9.86444937       9.10585030       8.50008073
C      -11.05477430       9.05648214       7.78789815
C      -11.10201515       8.37560745       6.57454809
C       -9.95802612       7.73951848       6.06295718
Br     -10.20748150       6.85117855       4.39574558
H       -2.72925811       0.13832003       0.03934968
H       -4.15933230       1.54995113       1.47026708
H       -0.64202176       3.23633003       3.32383139
H        0.78827703       1.80564762       1.89978087
H       -4.43057072       3.00601208       3.36963052
H       -2.27617617       5.41695637       6.26834380
H       -3.72280519       6.78662594       7.79697751
H       -5.55127085       4.99036395       3.48518770
H       -7.80799918       8.53650084       8.58338532
H       -9.81763316       9.63432132       9.44916303
H      -11.94536618       9.54544285       8.17390915
H      -12.04201267       8.34334780       6.02680511
C        0.88198434      -0.88198434       0.88198434
C        0.94747795      -0.63875267       2.25417304
C        1.74589685      -1.44989920       3.06397537
C        2.48295851      -2.49162000       2.49109869
C        2.42186574      -2.72769292       1.11488380
C        1.61312060      -1.92247863       0.30881376
C        3.31180526      -3.33791770       3.37181766
N        4.22041686      -4.13236234       2.90289955
C        4.97958560      -4.90972059       3.79787694
C        5.36498758      -6.19277065       3.36961117
C        6.12883330      -7.05893231       4.16940481
C        6.47450908      -6.56181452       5.41637494
O        7.18520453      -7.18870102       6.39669293
C        7.24271965      -6.26699683       7.42338324
N        6.63601294      -5.12772319       7.14339308
C        6.14133266      -5.30319242       5.87811176
C        5.40020747      -4.44549351       5.05670602
C        7.95096792      -6.69375715       8.63838367
C        8.53773224      -7.97778547       8.67698713
C        9.22572591      -8.44132939       9.80332511
C        9.34491351      -7.63062098      10.92362010
C        8.77500561      -6.36050406      10.91666101
C        8.08215157      -5.89040965       9.78794057
Br       7.36276750      -4.13408183       9.95755629
H        0.38308113       0.17645742       2.70030411
H        1.79478354      -1.25277010       4.13199686
H        2.99221997      -3.54000837       0.66995484
H        1.56101824      -2.11587479      -0.75974158
H        3.10564533      -3.24776064       4.45280734
H        5.05911622      -6.52432543       2.37803468
H        6.42252299      -8.04530415       3.83858149
H        5.16737361      -3.44987589       5.40957299
H        8.46608775      -8.64391791       7.81787967
H        9.66652993      -9.43526418       9.79932339
H        9.87913843      -7.98385247      11.80172728
H        8.87457654      -5.73545659      11.80213246
