174
Properties=species:S:1:pos:R:3 pbc="F F F"
C        1.79188837       1.79188837      -1.79188837
C        2.51467600       1.21756620      -2.83787353
C        3.31437961       2.02356400      -3.65153988
C        3.39390795       3.39790683      -3.40357449
C        2.67518585       3.96919574      -2.34977295
C        1.86658710       3.16269220      -1.54484576
C        4.24028958       4.22669799      -4.28426513
N        4.58262456       5.43475173      -3.96801453
C        5.39562415       6.17031444      -4.85095662
C        5.16851997       7.55592468      -4.93263682
C        5.91852616       8.39670272      -5.77165362
C        6.89901932       7.76372436      -6.51966693
O        7.75113275       8.32524708      -7.42393073
C        8.51229221       7.26816469      -7.88235489
N        8.20111577       6.11299105      -7.32273447
C        7.17819962       6.41202768      -6.46212160
C        6.43573858       5.59457793      -5.60180256
C        9.52204727       7.59028277      -8.90049078
C        9.66951643       8.92981514      -9.32288535
C       10.61283077       9.30004633     -10.28721537
C       11.43534272       8.33751628     -10.85600766
C       11.31201051       7.00806772     -10.46180453
C       10.36540046       6.63082043      -9.49399297
H        2.46206988       0.14808005      -3.02648996
H        3.87741857       1.56897471      -4.46286929
H        2.73423115       5.03845731      -2.15920679
H        1.30164796       3.61285194      -0.73236362
H        4.56056593       3.74869901      -5.22666044
H        4.38076580       7.99139619      -4.31902642
H        5.74103074       9.46124722      -5.83384275
H        6.67740319       4.54226492      -5.53686646
H        9.04281965       9.71443980      -8.90033796
H       10.70081676      10.34088012     -10.58913270
H       12.17128244       8.61826515     -11.60488267
H       11.96216340       6.26304548     -10.91666878
C       10.33971924       5.22511412      -9.18265673
C       10.31821121       4.04783509      -8.92191263
Br      10.28343455       2.14427446      -8.50031148
C       -1.79188837      -1.79188837      -1.79188837
C       -2.55317218      -1.21066758      -2.80627598
C       -3.35306510      -2.01633163      -3.62008676
C       -3.39404749      -3.39767598      -3.40366580
C       -2.63670932      -3.97614852      -2.38129669
C       -1.82814994      -3.16955697      -1.57641815
C       -4.24167591      -4.22566600      -4.28391078
N       -4.54759249      -5.44879553      -3.98900280
C       -5.36411682      -6.18274887      -4.87002951
C       -5.10635907      -7.56013416      -4.99058824
C       -5.85637461      -8.39875560      -5.83175229
C       -6.86938713      -7.77219846      -6.54082502
O       -7.72963430      -8.33265461      -7.43802164
C       -8.52645339      -7.28377190      -7.85258650
N       -8.22921603      -6.13495609      -7.27266916
C       -7.17897379      -6.42939780      -6.44397732
C       -6.43543162      -5.61477767      -5.58190978
C       -9.55267010      -7.60608578      -8.85406494
C       -9.67861170      -8.93843478      -9.30517044
C      -10.63598512      -9.30849740     -10.25560995
C      -11.49455873      -8.35298907     -10.78131887
C      -11.39318454      -7.03063607     -10.35806215
C      -10.43259887      -6.65356388      -9.40405111
H       -2.53045120      -0.13606049      -2.97012821
H       -3.94617806      -1.55645472      -4.40662980
H       -2.66582389      -5.05073320      -2.21533817
H       -1.23321472      -3.62498811      -0.78866069
H       -4.59589290      -3.73341482      -5.20661767
H       -4.29389988      -7.99078734      -4.40650119
H       -5.65531654      -9.45692134      -5.92388284
H       -6.70026639      -4.57045537      -5.48581281
H       -9.02348916      -9.71742389      -8.91668436
H      -10.70662252     -10.34372702     -10.58048003
H      -12.24157437      -8.63369288     -11.51916301
H      -12.07159599      -6.29103063     -10.77925104
C      -10.43262959      -5.25540233      -9.05945818
C      -10.43265531      -4.08444204      -8.77086159
Br     -10.43269690      -2.19109828      -8.30422532
C       -1.79188837       1.79188837       1.79188837
C       -1.62584247       3.17687284       1.76740043
C       -2.43761173       3.98593737       2.56593439
C       -3.40197075       3.40049936       3.39291916
C       -3.56040379       2.01215262       3.42159812
C       -2.75533409       1.20587946       2.61291151
C       -4.25123679       4.28008988       4.21992602
N       -4.96572812       3.82189961       5.19776309
C       -5.75094652       4.71543739       5.95051130
C       -6.98366060       4.24034586       6.43307501
C       -7.85158862       5.03438752       7.20090635
C       -7.40973938       6.32487934       7.44779189
O       -8.05261714       7.30894520       8.13874822
C       -7.19057911       8.38645359       8.08577909
N       -6.07207182       8.13474751       7.43002195
C       -6.20044929       6.83503360       7.01686602
C       -5.33844501       6.02030810       6.27336596
C       -7.64779426       9.61532708       8.74969948
C       -8.89761352       9.61728755       9.40731585
C       -9.38743973      10.75457703      10.05807571
C       -8.63810046      11.92287018      10.06789602
C       -7.40306435      11.95266866       9.42614974
C       -6.90683758      10.81308184       8.77029445
H       -0.87036258       3.63356390       1.13271342
H       -2.30069923       5.06422685       2.54433650
H       -4.31274028       1.55716661       4.06198836
H       -2.88867170       0.12707599       2.63111584
H       -4.23575723       5.35054183       3.94962633
H       -7.27317919       3.21586582       6.20214339
H       -8.79931422       4.66741963       7.56938686
H       -4.37943646       6.41330631       5.96379180
H       -9.51545310       8.72007652       9.42206779
H      -10.35365636      10.72153897      10.55563424
H       -9.01196631      12.80983943      10.57262451
H       -6.82617623      12.87552387       9.44017756
C       -5.62127304      10.98226254       8.14395451
C       -4.54461274      11.12395138       7.61939482
Br      -2.80374410      11.35305024       6.77122616
C        1.79188837      -1.79188837       1.79188837
C        1.47130026      -3.13928270       1.95953277
C        2.28171337      -3.94985531       2.75791481
C        3.40100126      -3.40152539       3.39286262
C        3.71498181      -2.04939789       3.22977483
C        2.90959308      -1.24354340       2.42098858
C        4.24411344      -4.28316049       4.22397876
N        5.12180508      -3.81225669       5.05132905
C        5.89092937      -4.70787342       5.81809241
C        7.21942543      -4.34017362       6.09748242
C        8.08303121      -5.14637391       6.85747738
C        7.53498822      -6.33594898       7.31147342
O        8.14599067      -7.30986463       8.04445525
C        7.16980748      -8.27017032       8.22283398
N        6.01295015      -7.95484922       7.66904191
C        6.23215480      -6.73541394       7.08478017
C        5.37973175      -5.90686059       6.34552673
C        7.56719252      -9.46520696       8.98042134
C        8.88148022      -9.55053234       9.49020437
C        9.31954079     -10.66081948      10.21973220
C        8.45224347     -11.71776192      10.45886127
C        7.15098960     -11.66383543       9.96705773
C        6.70623611     -10.55104813       9.23292962
H        0.59631342      -3.56546753       1.47485895
H        2.02427162      -4.99820423       2.88678672
H        4.58739404      -1.62386724       3.72063398
H        3.16314268      -0.19461718       2.28910366
H        4.07613524      -5.36660222       4.09318793
H        7.58973868      -3.39202205       5.70942768
H        9.10426981      -4.86227414       7.06957676
H        4.35185107      -6.20866926       6.19601423
H        9.59210061      -8.74166231       9.32383448
H       10.33807849     -10.69392011      10.59883097
H        8.78550218     -12.58296295      11.02596513
H        6.48149730     -12.49991726      10.16046310
C        5.34161451     -10.62650344       8.77937215
C        4.19874392     -10.68969726       8.39951776
Br       2.35081883     -10.79187632       7.78532534
C       -0.00445707       0.01189536      -1.78238275
H       -0.66409135       0.67374010      -2.43557963
H        0.65740317      -0.63156657      -2.45157240
C       -0.90989263      -0.90692880      -0.91072765
C        0.90977584       0.90977584      -0.90977584
C       -0.00465871       1.77757030       0.00794375
H       -0.66225468       2.44313916      -0.64384735
H        0.64322798       2.43503045       0.67728295
C       -1.78241447       0.00034974      -0.00472694
H       -2.45427497      -0.65498947       0.64260836
H       -2.43311707       0.67328779      -0.65473579
C       -0.91132561       0.90220522       0.91563759
C       -0.01476271      -0.02253852       1.78660255
H       -0.67934791      -0.69751639       2.42135241
H        0.63392994       0.61504881       2.47327442
C        0.01484550      -1.77751727      -0.01636693
H        0.67870853      -2.42144646      -0.68295456
H       -0.62264859      -2.45592969       0.64226336
C        1.78714474       0.01002794       0.00389507
H        2.44202412       0.67113390       0.66197326
H        2.45385902      -0.65136977      -0.64189061
C        0.91606151      -0.90478549       0.90901405
