166
Properties=species:S:1:pos:R:3 pbc="F F F"
C        1.79188837       1.79188837      -1.79188837
C        2.51467600       1.21756620      -2.83787353
C        3.31437961       2.02356400      -3.65153988
C        3.39390795       3.39790683      -3.40357449
C        2.67518585       3.96919574      -2.34977295
C        1.86658710       3.16269220      -1.54484576
C        4.24028958       4.22669799      -4.28426513
N        4.58262456       5.43475173      -3.96801453
C        5.39562415       6.17031444      -4.85095662
C        5.16851997       7.55592468      -4.93263682
C        5.91852616       8.39670272      -5.77165362
C        6.89901932       7.76372436      -6.51966693
O        7.75113275       8.32524708      -7.42393073
C        8.51229221       7.26816469      -7.88235489
N        8.20111577       6.11299105      -7.32273447
C        7.17819962       6.41202768      -6.46212160
C        6.43573858       5.59457793      -5.60180256
C        9.52204727       7.59028277      -8.90049078
C        9.66951643       8.92981514      -9.32288535
C       10.61283077       9.30004633     -10.28721537
C       11.43534272       8.33751628     -10.85600766
C       11.31201051       7.00806772     -10.46180453
C       10.36540046       6.63082043      -9.49399297
Br      10.33141724       4.77068977      -9.08201070
H        2.46206988       0.14808005      -3.02648996
H        3.87741857       1.56897471      -4.46286929
H        2.73423115       5.03845731      -2.15920679
H        1.30164796       3.61285194      -0.73236362
H        4.56056593       3.74869901      -5.22666044
H        4.38076580       7.99139619      -4.31902642
H        5.74103074       9.46124722      -5.83384275
H        6.67740319       4.54226492      -5.53686646
H        9.04281965       9.71443980      -8.90033796
H       10.70081676      10.34088012     -10.58913270
H       12.17128244       8.61826515     -11.60488267
H       11.96216340       6.26304548     -10.91666878
C       -1.79188837      -1.79188837      -1.79188837
C       -2.69449590      -1.19988502      -2.67573482
C       -3.49521663      -2.00428637      -3.48998049
C       -3.39465096      -3.39680639      -3.40393193
C       -2.49543217      -3.98715829      -2.51156408
C       -1.68705320      -3.18022908      -1.70684278
C       -4.24711233      -4.22211634      -4.28202402
N       -4.41554608      -5.48994087      -4.07990387
C       -5.24544323      -6.21896213      -4.95248984
C       -4.88122896      -7.54958512      -5.22626739
C       -5.63223332      -8.37950954      -6.07513963
C       -6.75920269      -7.79326367      -6.62994425
O       -7.64913655      -8.35301923      -7.49815477
C       -8.57040372      -7.35301418      -7.73939388
N       -8.32041584      -6.23602412      -7.08040133
C       -7.17406069      -6.49982330      -6.37846491
C       -6.42538203      -5.69614093      -5.51059612
C       -9.65565959      -7.68340943      -8.67375180
C       -9.70746162      -8.97724070      -9.23751460
C      -10.71540622      -9.35285040     -10.13183585
C      -11.70039368      -8.44164512     -10.48682786
C      -11.67474408      -7.15764621      -9.94949247
C      -10.66388413      -6.77509024      -9.05123950
Br     -10.78170743      -4.98029467      -8.42211560
H       -2.78138267      -0.11785366      -2.73740356
H       -4.19868949      -1.53639633      -4.17417676
H       -2.41468567      -5.06996271      -2.44724688
H       -0.98204507      -3.64364241      -1.02117604
H       -4.72954786      -3.68739558      -5.11898195
H       -3.98217003      -7.94985539      -4.75916299
H       -5.34936975      -9.40150249      -6.28524847
H       -6.76989859      -4.69432121      -5.29231477
H       -8.95273741      -9.72090165      -8.98395835
H      -10.72621433     -10.35778489     -10.54683036
H      -12.48721105      -8.72707300     -11.18014620
H      -12.45225362      -6.45241227     -10.23721177
C       -1.79188837       1.79188837       1.79188837
C       -1.67932750       3.18008568       1.71070255
C       -2.49147665       3.98865355       2.50935329
C       -3.40224486       3.40015916       3.39298525
C       -3.50692357       2.00904000       3.47819096
C       -2.70194014       1.20263175       2.66955318
C       -4.25346830       4.27886628       4.21891811
N       -4.91402906       3.83225006       5.23911170
C       -5.70452569       4.72441080       5.98795872
C       -6.89999780       4.22331280       6.53377087
C       -7.76877874       5.01367187       7.30443189
C       -7.36733643       6.32781431       7.48725988
O       -8.02136247       7.31322736       8.16572072
C       -7.20318179       8.41865022       8.04097978
N       -6.10058923       8.18324444       7.35300762
C       -6.19470053       6.86502571       6.99262267
C       -5.33016679       6.05471545       6.24723683
C       -7.68204197       9.65427460       8.67650426
C       -8.90625519       9.63556595       9.38039578
C       -9.41469824      10.77804706      10.00734718
C       -8.71020594      11.97239792       9.94626281
C       -7.50137809      12.02288320       9.25762147
C       -6.98664207      10.87814843       8.62542337
Br      -5.32649512      11.13234678       7.72527580
H       -0.96527739       3.63967187       1.03169064
H       -2.39630809       5.06962684       2.44332765
H       -4.21769133       1.55148666       4.16271727
H       -2.79364293       0.12114710       2.73207350
H       -4.28832886       5.33818616       3.90941038
H       -7.15879585       3.18096770       6.35142486
H       -8.68789936       4.62661696       7.72160440
H       -4.39861703       6.47040296       5.88751457
H       -9.48878319       8.71764278       9.45117144
H      -10.36020752      10.72866803      10.54195404
H       -9.09870416      12.86360717      10.43211892
H       -6.95966622      12.96601146       9.21619998
C        1.79188837      -1.79188837       1.79188837
C        1.56712295      -3.16810958       1.83488320
C        2.37842734      -3.97773290       2.63332326
C        3.40163699      -3.40088081       3.39287147
C        3.61912722      -2.02079562       3.35423170
C        2.81394991      -1.21467601       2.54549914
C        4.24866194      -4.28134724       4.22124352
N        5.02372531      -3.81428449       5.14738102
C        5.80299298      -4.70898264       5.90491958
C        7.07440621      -4.26840767       6.31426758
C        7.94105421      -5.06677310       7.07905518
C        7.45679679      -6.32527335       7.40034047
O        8.08749755      -7.30670269       8.10611031
C        7.17963658      -8.34680481       8.13637040
N        6.04506923      -8.07414812       7.51762393
C        6.20955278      -6.79970915       7.04308698
C        5.35074587      -5.97993834       6.30143486
C        7.61359000      -9.56561597       8.83361485
C        8.88976058      -9.59464163       9.43781471
C        9.35952286     -10.72401145      10.11655816
C        8.56309781     -11.85702689      10.20874196
C        7.30104751     -11.85968361       9.62115164
C        6.82476998     -10.72795431       8.93748957
Br       5.08116735     -10.91179933       8.19115102
H        0.76619604      -3.61752672       1.25291713
H        2.19570170      -5.04897213       2.66458874
H        4.41709424      -1.57270447       3.94209654
H        2.99298048      -0.14290958       2.51097346
H        4.17661271      -5.36047374       3.99883894
H        7.39617756      -3.26811146       6.02689939
H        8.91849373      -4.72645057       7.39117641
H        4.36352758      -6.34328584       6.04972114
H        9.54465661      -8.72544046       9.38750034
H       10.34708397     -10.71241374      10.57133187
H        8.92120858     -12.73758079      10.73564088
H        6.68721187     -12.75506630       9.69959949
C       -0.00445707       0.01189536      -1.78238275
H       -0.66409135       0.67374010      -2.43557963
H        0.65740317      -0.63156657      -2.45157240
C       -0.90989263      -0.90692880      -0.91072765
C        0.90977584       0.90977584      -0.90977584
C       -0.00465871       1.77757030       0.00794375
H       -0.66225468       2.44313916      -0.64384735
H        0.64322798       2.43503045       0.67728295
C       -1.78241447       0.00034974      -0.00472694
H       -2.45427497      -0.65498947       0.64260836
H       -2.43311707       0.67328779      -0.65473579
C       -0.91132561       0.90220522       0.91563759
C       -0.01476271      -0.02253852       1.78660255
H       -0.67934791      -0.69751639       2.42135241
H        0.63392994       0.61504881       2.47327442
C        0.01484550      -1.77751727      -0.01636693
H        0.67870853      -2.42144646      -0.68295456
H       -0.62264859      -2.45592969       0.64226336
C        1.78714474       0.01002794       0.00389507
H        2.44202412       0.67113390       0.66197326
H        2.45385902      -0.65136977      -0.64189061
C        0.91606151      -0.90478549       0.90901405
