153
Properties=species:S:1:pos:R:3 pbc="F F F"
C        0.00000000       0.00000000       0.00000000
C        0.88198434       0.88198434      -0.88198434
C        1.60477198       0.30766218      -1.92796950
C        2.40447559       1.11365997      -2.74163586
C        2.48400392       2.48800280      -2.49367047
C        1.76528182       3.05929171      -1.43986892
C        0.95668308       2.25278818      -0.63494174
C        3.33038555       3.31679396      -3.37436110
N        3.67272054       4.52484770      -3.05811051
C        4.48572012       5.26041041      -3.94105260
C        4.25861595       6.64602066      -4.02273279
C        5.00862213       7.48679869      -4.86174959
C        5.98911530       6.85382033      -5.60976291
O        6.84122872       7.41534305      -6.51402671
C        7.60238818       6.35826067      -6.97245087
N        7.29121174       5.20308702      -6.41283045
C        6.26829560       5.50212366      -5.55221758
C        5.52583455       4.68467391      -4.69189854
C        8.61214325       6.68037874      -7.99058676
C        8.75961241       8.01991112      -8.41298132
C        9.70292675       8.39014231      -9.37731135
C       10.52543870       7.42761226      -9.94610364
C       10.40210649       6.09816369      -9.55190050
C        9.45549644       5.72091640      -8.58408895
H        1.55216586      -0.76182398      -2.11658594
H        2.96751455       0.65907069      -3.55296526
H        1.82432713       4.12855329      -1.24930277
H        0.39174394       2.70294792       0.17754040
H        3.65066191       2.83879499      -4.31675642
H        3.47086178       7.08149216      -3.40912240
H        4.83112672       8.55134320      -4.92393872
H        5.76749916       3.63236089      -4.62696244
H        8.13291562       8.80453578      -7.99043393
H        9.79091273       9.43097609      -9.67922868
H       11.26137842       7.70836112     -10.69497864
H       11.05225937       5.35314145     -10.00676476
C        9.42981521       4.31521010      -8.27275271
C        9.40830719       3.13793106      -8.01200861
Br       9.37353053       1.23437044      -7.59040745
C       -0.88198434      -0.88198434      -0.88198434
C       -1.30697462      -2.12394889      -0.40948015
C       -2.12131167      -2.92798502      -1.21047472
C       -2.49397658      -2.48710750      -2.48459312
C       -2.05983038      -1.24602757      -2.95858451
C       -1.25527373      -0.43844029      -2.15069897
C       -3.36173176      -3.35373228      -3.30607658
N       -3.52674870      -3.15417406      -4.57475599
C       -4.36497810      -4.02051249      -5.30169254
C       -5.11156174      -3.46141220      -6.35439546
C       -5.97719816      -4.22433316      -7.15563911
C       -6.04846445      -5.57070544      -6.83352865
O       -6.81666242      -6.53019371      -7.42374236
C       -6.51859837      -7.68568909      -6.72881225
N       -5.62410714      -7.50994606      -5.77307601
C       -5.32221750      -6.17482821      -5.82559112
C       -4.44659314      -5.40214348      -5.05367038
C       -7.23210599      -8.89878438      -7.15221839
C       -8.13893291      -8.82144829      -8.23212364
C       -8.84726646      -9.94041834      -8.68269560
C       -8.66682391     -11.16925142      -8.06307926
C       -7.78137703     -11.27659324      -6.99420041
C       -7.06794866     -10.15532565      -6.53722748
H       -1.01058975      -2.47299525       0.57665718
H       -2.44624358      -3.89601183      -0.83729509
H       -2.35259105      -0.90165416      -3.94793797
H       -0.92796047       0.53042260      -2.51961358
H       -3.85811402      -4.18023292      -2.76786637
H       -5.01133325      -2.39534360      -6.55479949
H       -6.55118346      -3.79197550      -7.96324968
H       -3.85704102      -5.88422815      -4.28555332
H       -8.30822348      -7.87506446      -8.74459740
H       -9.53728190      -9.84614223      -9.51769337
H       -9.21293169     -12.04305415      -8.40873234
H       -7.65019005     -12.24565449      -6.51632104
C       -6.19087554     -10.40428740      -5.42261509
C       -5.45632679     -10.61279286      -4.48912721
Br      -4.26862360     -10.94992856      -2.97975626
C       -0.88198434       0.88198434       0.88198434
C       -2.26466585       0.87960029       0.69613752
C       -3.07391713       1.67809831       1.50775597
C       -2.49072297       2.48299596       2.49195827
C       -1.10451228       2.48962932       2.67030087
C       -0.29829025       1.68092625       1.86519649
C       -3.37062057       3.31044000       3.34048006
N       -2.90896084       4.27149070       4.07522721
C       -3.80293369       5.02579109       4.85845836
C       -3.33873866       5.48413601       6.10449472
C       -4.13420337       6.25093314       6.97203391
C       -5.41465780       6.52239990       6.51564084
O       -6.39797875       7.21821513       7.15440460
C       -7.46371520       7.19275976       6.27662476
N       -7.20532482       6.54927846       5.15252593
C       -5.91351629       6.11585322       5.29326733
C       -5.09711411       5.37300400       4.43228889
C       -8.68952569       7.86764976       6.72593329
C       -8.70006821       8.50757881       7.98485782
C       -9.83496356       9.16754529       8.46787155
C      -10.99219134       9.20457667       7.70238658
C      -11.01338907       8.58075974       6.45802188
C       -9.87617718       7.91575612       5.96856849
H       -2.71941413       0.26218601      -0.07467231
H       -4.15034029       1.67381751       1.35539271
H       -0.65134362       3.11281423       3.43802533
H        0.77865007       1.68185714       2.01394438
H       -4.44443943       3.05568710       3.30608678
H       -2.32184448       5.23455890       6.40507296
H       -3.77564866       6.60077003       7.92998995
H       -5.48070419       5.08259180       3.46352650
H       -7.81164600       8.50083295       8.61540638
H       -9.80871953       9.65093913       9.44145884
H      -11.87721649       9.71660059       8.07090110
H      -11.92762976       8.61606937       5.86846645
C      -10.03579139       7.31004219       4.67194443
C      -10.16946829       6.80275678       3.58602179
Br     -10.38561254       5.98251918       1.83017671
C        0.88198434      -0.88198434       0.88198434
C        0.50924870      -1.12734676       2.20380820
C        1.30925692      -1.94123572       3.00927877
C        2.48394073      -2.49362429       2.48811218
C        2.85915101      -2.23928284       1.16600861
C        2.05096870      -1.43466000       0.35878429
C        3.30580946      -3.35640057       3.35933059
N        4.52222258      -3.67893772       3.05451845
C        5.25347746      -4.50213971       3.93156597
C        6.15915733      -5.41167331       3.35653875
C        6.94980944      -6.28039468       4.12696630
C        6.77231889      -6.18213835       5.49824131
O        7.38553869      -6.91181556       6.47324424
C        6.85490039      -6.42617700       7.65202233
N        5.97891543      -5.45378712       7.47442666
C        5.91385128      -5.29318504       6.11560052
C        5.15211378      -4.41877850       5.33151472
C        7.33646636      -7.05830539       8.88833699
C        8.30618764      -8.08161257       8.80470464
C        8.80477684      -8.72093164       9.94467192
C        8.34504617      -8.35264424      11.20146418
C        7.38741433      -7.34872402      11.31603234
C        6.88274630      -6.70388947      10.17386602
H       -0.39828131      -0.69117362       2.61403552
H        1.01451962      -2.12569101       4.03933987
H        3.77073467      -2.67176288       0.75968563
H        2.34163173      -1.24746312      -0.67194340
H        2.81531387      -3.70627314       4.28462630
H        6.24998840      -5.44014451       2.27134343
H        7.64412894      -6.97971756       3.68256213
H        4.50386500      -3.70348205       5.81947544
H        8.69213500      -8.39911877       7.83663157
H        9.55188996      -9.50454771       9.84467983
H        8.72896008      -8.84425418      12.09150393
H        7.03440283      -7.07046261      12.30730015
C        5.89463661      -5.68919791      10.43394349
C        5.06709475      -4.83939374      10.65175838
Br       3.72902954      -3.46533226      11.00394662
