150
Properties=species:S:1:pos:R:3 pbc="F F F"
C        1.79267202       1.79267202      -1.79267202
C        1.60442156       1.79217928      -3.17519749
C        2.41522338       2.58946078      -3.98377137
C        3.40340948       3.38797659      -3.40541719
C        3.58370609       3.39340451      -2.01890125
C        4.63317652       4.21501466      -1.41789884
H        4.34616205       5.22275570      -1.13383637
N        5.81792902       3.62858068      -1.23954743
N        6.74200339       4.48171944      -0.59320855
C        8.04371415       4.13598224      -0.23223892
O        8.76304689       4.96144946       0.33174805
C        8.60627457       2.70247755      -0.52008244
O        9.74829389       2.41789644      -0.17708831
N        7.71690852       1.86471783      -1.15349339
C        7.82901412       0.51084158      -1.48390394
C        8.95558111      -0.26255562      -1.19970867
C        8.98159845      -1.62157440      -1.52667893
C        7.88176185      -2.21400150      -2.14565989
C        6.76024369      -1.44059378      -2.43848150
Br       5.26675072      -2.24171602      -3.27916514
C        6.72841363      -0.08483096      -2.11175744
C        2.77810154       2.58718113      -1.21080711
H        0.83874556       1.17066221      -3.62985447
H        2.28789896       2.58636955      -5.06188192
H        4.05221134       3.99785756      -4.02949379
H        6.44521210       5.41728049      -0.34654105
H        6.82970506       2.35160673      -1.34755640
H        9.82401944       0.17034611      -0.71178331
H        9.86125379      -2.21298618      -1.28911793
H        7.90796156      -3.27116461      -2.39079362
H        5.84590986       0.51188056      -2.33597436
H        2.94530713       2.58055794      -0.13695022
C       -1.79267202      -1.79267202      -1.79267202
C       -1.29508582      -2.27170964      -3.00500288
C       -2.10215294      -3.06937544      -3.81692715
C       -3.39807899      -3.38984823      -3.40887604
C       -3.89084017      -2.91595865      -2.18921304
C       -5.25571328      -3.23616401      -1.77421273
H       -5.37570196      -4.14085012      -1.18620204
N       -6.20249412      -2.36276034      -2.12080267
N       -7.47260436      -2.72710073      -1.61722629
C       -8.64557827      -1.99012480      -1.77623224
O       -9.69935952      -2.40297347      -1.29041531
C       -8.64405351      -0.63042471      -2.55435635
O       -9.68520157       0.00718766      -2.66526473
N       -7.41373917      -0.26801593      -3.05336464
C       -7.01302517       0.89938395      -3.71011842
C       -7.87224991       1.96441520      -3.98489947
C       -7.39154926       3.11743414      -4.61258787
C       -6.04830345       3.20938708      -4.97450388
C       -5.19170189       2.14281417      -4.70924369
Br      -3.36869580       2.26455118      -5.20005523
C       -5.66597365       0.99134869      -4.08071515
C       -3.08562475      -2.10900104      -1.38146399
H       -0.28854909      -2.02287614      -3.32783701
H       -1.73118817      -3.43587694      -4.76908532
H       -4.04042516      -3.99506947      -4.04406806
H       -7.55210149      -3.57947213      -1.07746003
H       -6.70558014      -0.98502034      -2.83826771
H       -8.92170804       1.92362957      -3.70807039
H       -8.07005730       3.94249317      -4.80982139
H       -5.68201595       4.11060465      -5.45617927
H       -4.98964485       0.16494921      -3.86906914
H       -3.48921108      -1.72554977      -0.44805444
C       -1.79267202       1.79267202       1.79267202
C       -2.03231269       3.11655875       1.42292690
C       -2.82953589       3.92699345       2.23192619
C       -3.38861734       3.40744432       3.40074160
C       -3.15425332       2.07775401       3.76400452
C       -3.72419759       1.54246648       4.99942595
H       -4.70482022       1.08468539       4.91324851
N       -2.96363265       1.63070386       6.09172062
N       -3.57420616       1.02732755       7.21539768
C       -3.00514180       0.92273134       8.48406217
O       -3.62889286       0.37184300       9.39201244
C       -1.57145472       1.48414317       8.77323668
O       -1.08645587       1.36411769       9.89270508
N       -0.96926825       2.07819866       7.68765283
C        0.31945450       2.60058052       7.54263362
C        1.27164694       2.60126111       8.56312000
C        2.55439102       3.10758572       8.33350829
C        2.89048416       3.62190229       7.08200212
C        1.93761786       3.63044759       6.06530169
Br       2.39070559       4.32855277       4.36635266
C        0.65724252       3.12389723       6.28868541
C       -2.34765618       1.26979589       2.95863770
H       -1.59739124       3.52588870       0.51598230
H       -3.01114922       4.96276677       1.96223444
H       -3.99548446       4.03726771       4.04681052
H       -4.49130944       0.61430637       7.10341783
H       -1.59494227       2.06493500       6.86899092
H        1.04027684       2.20064040       9.54578531
H        3.28810983       3.09112357       9.13437179
H        3.89054547       4.00767615       6.91045989
H       -0.07997122       3.12614598       5.48764757
H       -2.15184751       0.24568695       3.26528084
C        1.79267202      -1.79267202       1.79267202
C        2.04439706      -3.11214443       1.41525684
C        2.84163113      -3.92266271       2.22416169
C        3.38866591      -3.40753010       3.40060726
C        3.14222177      -2.08217054       3.77161954
C        3.69953315      -1.55169964       5.01485724
H        4.67744332      -1.08636032       4.93895048
N        2.93187986      -1.65314826       6.10102901
N        3.53012503      -1.05350409       7.23330227
C        2.95133048      -0.96203041       8.49857442
O        3.56466023      -0.41323476       9.41485331
C        1.51967837      -1.53566530       8.77349089
O        1.02589437      -1.42709878       9.89028549
N        0.92948258      -2.12620204       7.67943512
C       -0.35440783      -2.65667332       7.52149414
C       -1.31379517      -2.67141699       8.53511236
C       -2.59122125      -3.18518423       8.29274000
C       -2.91472915      -3.69290922       7.03524018
C       -1.95462887      -3.68741328       6.02534701
Br      -2.39063265      -4.37654773       4.31828477
C       -0.67952879      -3.17339256       6.26147635
C        2.33560616      -1.27422129       2.96626233
H        1.61886755      -3.51805489       0.50233980
H        3.03256012      -4.95516423       1.94842608
H        3.99541880      -4.03763275       4.04651114
H        4.44502253      -0.63318899       7.13082212
H        1.56084460      -2.10263884       6.86538475
H       -1.09228219      -2.27620275       9.52222830
H       -3.33070879      -3.17966322       9.08843110
H       -3.91076162      -4.08453944       6.85381275
H        0.06335308      -3.16467482       5.46573688
H        2.13030352      -0.25374871       3.27876307
C       -0.00445707       0.01189536      -1.78238275
H       -0.66409135       0.67374010      -2.43557963
H        0.65740317      -0.63156657      -2.45157240
C       -0.90989263      -0.90692880      -0.91072765
C        0.90977584       0.90977584      -0.90977584
C       -0.00465871       1.77757030       0.00794375
H       -0.66225468       2.44313916      -0.64384735
H        0.64322798       2.43503045       0.67728295
C       -1.78241447       0.00034974      -0.00472694
H       -2.45427497      -0.65498947       0.64260836
H       -2.43311707       0.67328779      -0.65473579
C       -0.91132561       0.90220522       0.91563759
C       -0.01476271      -0.02253852       1.78660255
H       -0.67934791      -0.69751639       2.42135241
H        0.63392994       0.61504881       2.47327442
C        0.01484550      -1.77751727      -0.01636693
H        0.67870853      -2.42144646      -0.68295456
H       -0.62264859      -2.45592969       0.64226336
C        1.78714474       0.01002794       0.00389507
H        2.44202412       0.67113390       0.66197326
H        2.45385902      -0.65136977      -0.64189061
C        0.91606151      -0.90478549       0.90901405
