129
Properties=species:S:1:pos:R:3 pbc="F F F"
C        0.00000000       0.00000000       0.00000000
C        0.88159260       0.88159260      -0.88159260
C        0.37456756       2.07615257      -1.38958663
C        1.17896021       2.88455457      -2.19770586
C        2.49175637       2.49494290      -2.49642318
C        2.99326688       1.29361963      -1.97961476
C        2.18665554       0.48603017      -1.17243828
C        3.36052424       3.32638236      -3.34616535
N        4.59434771       3.09705143      -3.66465162
C        4.90660301       4.17323578      -4.45782435
C        6.11111794       4.36742501      -5.00883413
C        6.47226820       5.51352491      -5.85169549
C        6.31444864       5.37805300      -7.24079566
C        6.62493026       6.45908659      -8.03896097
O        6.52612976       6.49835477      -9.39474734
C        6.95213998       7.85126424      -9.65983982
O        7.32589483       8.57710867      -8.47014724
C        7.08040712       7.64377525      -7.51197687
C        7.25421555       7.81772368      -6.15672552
C        6.94499092       6.73919630      -5.31917758
Br       7.19029521       6.98763170      -3.44888970
C        3.72139060       5.07040037      -4.59539046
O        3.58092096       6.10255105      -5.21743254
O        2.77907431       4.44287448      -3.84017489
H       -0.64257081       2.38838640      -1.16338075
H        0.76618740       3.81386085      -2.58416969
H        4.01094019       0.97762698      -2.20198213
H        2.58468732      -0.44544417      -0.77719527
H        6.90585768       3.64713910      -4.83227795
H        5.94884674       4.45939972      -7.68769713
H        6.13430639       8.38666599     -10.15604065
H        7.81398728       7.82047969     -10.33621856
H        7.61260836       8.76327109      -5.76600342
C       -0.88159260      -0.88159260      -0.88159260
C       -2.26808799      -0.75870230      -0.81351648
C       -3.07751406      -1.56514449      -1.61856209
C       -2.49648714      -2.49484698      -2.49178833
C       -1.10199318      -2.60975052      -2.55475756
C       -0.29430124      -1.80293408      -1.74788867
C       -3.32510440      -3.35796656      -3.35000100
N       -2.91250839      -4.22500791      -4.21853446
C       -4.08566669      -4.73134443      -4.72065201
C       -4.14411951      -5.66419990      -5.67905766
C       -5.38453333      -6.21410768      -6.23884759
C       -5.90849053      -7.37605303      -5.64875372
C       -7.08845117      -7.88452478      -6.15000187
O       -7.73108261      -8.99328039      -5.69486887
C       -8.88277921      -9.01658822      -6.56387660
O       -8.88867640      -7.94945869      -7.53501565
C       -7.74823470      -7.28946965      -7.19845488
C       -7.26719490      -6.15240105      -7.80906879
C       -6.07215433      -5.60998983      -7.32122065
Br      -5.41393520      -4.04073845      -8.17214296
C       -5.25224909      -4.08533806      -4.04959428
O       -6.44366663      -4.26362113      -4.19361679
O       -4.65994131      -3.21350644      -3.18867594
H       -2.72939149      -0.03990823      -0.13989663
H       -4.15763358      -1.45420552      -1.55237885
H       -0.63567031      -3.32655668      -3.22832231
H        0.78722696      -1.90065180      -1.80301358
H       -3.22400168      -6.05900105      -6.10227199
H       -5.41680048      -7.86496463      -4.81417847
H       -9.78791413      -8.93872932      -5.95036958
H       -8.89994344      -9.97439900      -7.09634308
H       -7.80806425      -5.70088131      -8.63293732
C       -0.88159260       0.88159260       0.88159260
C       -0.59506238       2.23977557       1.00546882
C       -1.39971359       3.04889176       1.81261529
C       -2.49162855       2.49593030       2.49556361
C       -2.77298190       1.13023493       2.36328443
C       -1.96624024       0.32255592       1.55632783
C       -3.35492568       3.32457827       3.35356800
N       -4.40746812       2.94407704       4.00450560
C       -4.81378383       4.09993008       4.62394922
C       -5.89731620       4.18445250       5.40560838
C       -6.35754696       5.40935071       6.07059094
C       -5.90281135       5.65359524       7.37689070
C       -6.30766117       6.81562757       7.99968908
O       -5.95848577       7.20601272       9.25473338
C       -6.64415623       8.47230906       9.34677875
O       -7.41024417       8.79538333       8.16752324
C       -7.13473703       7.72146339       7.37995881
C       -7.60750637       7.51895230       6.10220607
C       -7.21216603       6.34935744       5.44184135
Br      -7.87183289       6.07677819       3.67820553
C       -3.88265069       5.21718081       4.28734993
O       -3.88180989       6.37760694       4.64148772
O       -2.98125776       4.61975843       3.46110749
H        0.24941123       2.67933442       0.47927316
H       -1.16111053       4.10692327       1.89618415
H       -3.61778832       0.68605823       2.88670275
H       -2.19203219      -0.73681331       1.46121954
H       -6.50894403       3.30184930       5.57448139
H       -5.24220708       4.96301984       7.89071667
H       -5.90259767       9.26261290       9.51180245
H       -7.32249732       8.44112039      10.20706782
H       -8.25690547       8.25029890       5.63467850
C        0.88159260      -0.88159260       0.88159260
C        1.85055473      -0.29575086       1.69400117
C        2.65964939      -1.10038549       2.50118576
C        2.49705698      -2.49249497       2.49357051
C        1.51915409      -3.07206144       1.67528573
C        0.71171111      -2.26550128       0.86791159
C        3.33641783      -3.36403032       3.33262381
N        3.26205730      -4.65199551       3.44199796
C        4.26009001      -4.93694711       4.34062602
C        4.54161398      -6.17197402       4.77378907
C        5.59600422      -6.50108385       5.74040054
C        6.86394382      -6.83357160       5.23578187
C        7.86852973      -7.11734484       6.13710325
O        9.14789031      -7.45179315       5.81954842
C        9.72329802      -7.60616900       7.13377701
O        8.77610195      -7.39541675       8.20163204
C        7.65667318      -7.08491325       7.49457281
C        6.42830563      -6.76879710       8.03156201
C        5.38810848      -6.47296384       7.14229250
Br       3.69431689      -6.03971583       7.89278389
C        4.95509580      -3.68110685       4.75097878
O        5.88957847      -3.50651512       5.50481095
O        4.28521465      -2.72399299       4.05291605
H        1.98465320       0.78362234       1.70816549
H        3.40979983      -0.62502134       3.12939677
H        1.38020425      -4.15158787       1.65875718
H       -0.04368483      -2.72504924       0.23507402
H        3.96023401      -7.01524307       4.40979764
H        7.06625567      -6.85959924       4.17008868
H       10.54405615      -6.88802985       7.24492702
H       10.12907389      -8.62053662       7.22107502
H        6.28784118      -6.74777193       9.10626976
