137
Properties=species:S:1:pos:R:3 pbc="F F F"
C        0.00000000       0.00000000       0.00000000
C        0.88159260       0.88159260      -0.88159260
C        0.37456756       2.07615257      -1.38958663
C        1.17896021       2.88455457      -2.19770586
C        2.49175637       2.49494290      -2.49642318
C        2.99326688       1.29361963      -1.97961476
C        2.18665554       0.48603017      -1.17243828
C        3.36052424       3.32638236      -3.34616535
N        4.59434771       3.09705143      -3.66465162
C        4.90660301       4.17323578      -4.45782435
C        6.11111794       4.36742501      -5.00883413
C        6.47226820       5.51352491      -5.85169549
C        6.31444864       5.37805300      -7.24079566
C        6.62493026       6.45908659      -8.03896097
O        6.52612976       6.49835477      -9.39474734
C        6.95213998       7.85126424      -9.65983982
O        7.32589483       8.57710867      -8.47014724
C        7.08040712       7.64377525      -7.51197687
C        7.25421555       7.81772368      -6.15672552
C        6.94499092       6.73919630      -5.31917758
C        3.72139060       5.07040037      -4.59539046
O        3.58092096       6.10255105      -5.21743254
O        2.77907431       4.44287448      -3.84017489
H       -0.64257081       2.38838640      -1.16338075
H        0.76618740       3.81386085      -2.58416969
H        4.01094019       0.97762698      -2.20198213
H        2.58468732      -0.44544417      -0.77719527
H        6.90585768       3.64713910      -4.83227795
H        5.94884674       4.45939972      -7.68769713
H        6.13430639       8.38666599     -10.15604065
H        7.81398728       7.82047969     -10.33621856
H        7.61260836       8.76327109      -5.76600342
C        7.13065209       6.92722729      -3.90363024
C        7.28614332       7.08470323      -2.71810934
Br       7.53755948       7.33932852      -0.80122231
C       -0.88159260      -0.88159260      -0.88159260
C       -1.99887416      -0.33304019      -1.50839241
C       -2.80821793      -1.13793891      -2.31506379
C       -2.49712679      -2.49292994      -2.49306573
C       -1.37098770      -3.03484244      -1.86067112
C       -0.56345809      -2.22826326      -1.05340264
C       -3.33299022      -3.36407513      -3.33600660
N       -3.13429168      -4.61435964      -3.60739944
C       -4.19701637      -4.91938206      -4.42126471
C       -4.39429633      -6.12555788      -4.96752287
C       -5.51609382      -6.47364866      -5.84774613
C       -6.67068771      -7.00907640      -5.25353319
C       -7.74033121      -7.31343729      -6.06920932
O       -8.92856398      -7.83206002      -5.65860787
C       -9.63842999      -7.91251567      -6.91229837
O       -8.85525191      -7.47536166      -8.04253717
C       -7.69859886      -7.10986788      -7.42769250
C       -6.58520294      -6.59189144      -8.05157035
C       -5.48316835      -6.27003466      -7.25016179
C       -5.06747319      -3.71981760      -4.59989064
O       -6.09942950      -3.57924352      -5.22223152
O       -4.42508171      -2.76951295      -3.86752902
H       -2.24900256       0.71747201      -1.37766579
H       -3.67545146      -0.69180985      -2.79695664
H       -1.11576990      -4.08517455      -1.98960486
H        0.30780938      -2.65864862      -0.56559918
H       -3.68593771      -6.92670703      -4.77262999
H       -6.73890766      -7.17379411      -4.18324181
H      -10.53904198      -7.29093642      -6.84703462
H       -9.94031219      -8.95312929      -7.07724404
H       -6.57856690      -6.43860601      -9.12470996
C       -4.32189417      -5.73061486      -7.90900058
C       -3.34932704      -5.27885078      -8.46077807
Br      -1.77676825      -4.54838647      -9.35295559
C       -0.88159260       0.88159260       0.88159260
C       -0.47314284       2.17800120       1.18916273
C       -1.27762142       2.98680780       1.99679142
C       -2.49163779       2.49547472       2.49600994
C       -2.89478073       1.19191301       2.17980752
C       -2.08811072       0.38426727       1.37274600
C       -3.35788790       3.32507958       3.35010448
N       -4.51161217       3.00292479       3.84151379
C       -4.86535823       4.12794466       4.54436025
C       -6.01691530       4.25539230       5.21506948
C       -6.42206151       5.45013751       5.96528959
C       -6.09743751       5.50511966       7.33074012
C       -6.44948495       6.63573239       8.03776048
O       -6.20827104       6.85248258       9.35847824
C       -6.76622144       8.17284539       9.52417719
O       -7.35476656       8.70106607       8.31731811
C       -7.10257454       7.68927402       7.44431068
C       -7.44400283       7.67466261       6.10999929
C       -7.09782102       6.54152745       5.36401634
C       -3.79194495       5.15969098       4.43554550
O       -3.71249836       6.26980132       4.91860486
O       -2.86793904       4.55092354       3.64326111
H        0.46675768       2.56955121       0.80640282
H       -0.94274321       3.99628015       2.22519459
H       -3.83516607       0.79612372       2.55925952
H       -2.40914486      -0.62681025       1.13410381
H       -6.73129300       3.43609280       5.21788893
H       -5.57457564       4.69424066       7.82712729
H       -5.97123042       8.85174325       9.85403935
H       -7.53832223       8.13142282      10.30094048
H       -7.95691299       8.51978520       5.66518467
C       -7.45928536       6.53207093       3.97015333
C       -7.76201175       6.52415109       2.80279305
Br      -8.25149472       6.51134538       0.91527022
C        0.88159260      -0.88159260       0.88159260
C        2.15157469      -0.44033652       1.24839555
C        2.96110374      -1.24571197       2.05440493
C        2.49705115      -2.49359479       2.49247651
C        1.21843348      -2.92770369       2.12036409
C        0.41081369      -2.12106591       1.31324439
C        3.32914099      -3.36292980       3.34100116
N        3.00470070      -4.51381681       3.83753325
C        4.13268307      -4.87124058       4.53373949
C        4.24594151      -6.00518293       5.23625264
C        5.43641856      -6.40503057       5.99603948
C        6.39253108      -7.19908521       5.34168101
C        7.52765853      -7.55673730       6.03858200
O        8.54888970      -8.31421983       5.55612234
C        9.43525463      -8.33339784       6.69459156
O        8.91552022      -7.62099360       7.83663692
C        7.73666917      -7.16141169       7.33807838
C        6.82319147      -6.38697201       8.01850127
C        5.66119530      -6.00496163       7.33720789
C        5.17947435      -3.81650436       4.39120272
O        6.30842220      -3.76044298       4.83203937
O        4.56542060      -2.88593595       3.61076713
H        2.52127002       0.52669476       0.91462109
H        3.94894983      -0.88398655       2.33128157
H        0.84350032      -3.89398020       2.45306878
H       -0.57973696      -2.46758245       1.02859292
H        3.41045666      -6.69946786       5.27535021
H        6.26177278      -7.52053681       4.31363400
H       10.39105057      -7.88215283       6.40380962
H        9.61166858      -9.37592462       6.98309232
H        7.01296676      -6.08632282       9.04259330
C        4.70964536      -5.19689511       8.05496915
C        3.91272229      -4.52013940       8.65609420
Br       2.62416508      -3.42588266       9.62806257
