121
Properties=species:S:1:pos:R:3 pbc="F F F"
C        0.00000000       0.00000000       0.00000000
C        0.88884114       0.88884114      -0.88884114
C        2.25927236       0.66736967      -0.75041462
C        3.16800960       1.42828362      -1.47837715
C        2.72930107       2.45122394      -2.32971842
C        1.35430152       2.72482642      -2.44085416
C        0.42798433       1.89442840      -1.75993805
C       -1.01902518       2.05718241      -2.06973963
O       -1.83884601       1.18186008      -1.81709092
C       -1.49962386       3.29331138      -2.71716121
C       -2.88474977       3.54177662      -2.72106922
C       -3.38227828       4.74297794      -3.21315097
C       -2.49384020       5.71522714      -3.64294793
C       -1.11492391       5.46324850      -3.63094830
C       -0.59116664       4.21236314      -3.25814226
C        0.85901614       3.83354883      -3.31514474
C        1.75212984       4.35634395      -4.19494864
Br       1.33190848       5.41183067      -5.71237992
C        3.23427999       4.09224637      -4.07290119
O        4.03478087       4.69266543      -4.79253448
N        3.65121865       3.18152928      -3.12145197
C        5.08049725       2.89752862      -3.03051469
H        2.63409645      -0.11624980      -0.09378481
H        4.21996578       1.18212267      -1.36509783
H       -3.57705722       2.80097730      -2.32328749
H       -4.45384621       4.92662600      -3.22787017
H       -2.86487252       6.67656232      -3.98874809
H       -0.47031884       6.28934801      -3.91556888
H        5.67997194       3.57268115      -3.64347583
H        5.26711474       1.87501308      -3.37964998
H        5.41573950       3.01214673      -1.99250445
C       -0.88884114      -0.88884114      -0.88884114
C       -0.95922302      -0.49306540      -2.22476823
C       -1.75374477      -1.19841857      -3.12250703
C       -2.52396869      -2.28907217      -2.69720257
C       -2.50755770      -2.66914517      -1.34327922
C       -1.63485511      -1.99884226      -0.44865341
C       -1.46551526      -2.56156293       0.91918132
O       -0.50119823      -2.28031070       1.62140395
C       -2.46677457      -3.50232338       1.45824921
C       -2.44123890      -3.77536694       2.83850976
C       -3.43028748      -4.56172172       3.41815857
C       -4.47326875      -5.02211104       2.63104491
C       -4.49550676      -4.74155228       1.25778615
C       -3.44429027      -4.05697479       0.62192630
C       -3.34632968      -3.80751698      -0.85386305
C       -3.88298408      -4.61675855      -1.80367981
Br      -4.58168677      -6.35568468      -1.51874762
C       -3.93088387      -4.21079632      -3.25774736
O       -4.55057994      -4.89463867      -4.07476217
N       -3.28117384      -3.04820033      -3.62482573
C       -3.29468846      -2.67700771      -5.03684438
H       -0.37733845       0.35294818      -2.58724119
H       -1.73514904      -0.87321983      -4.15881741
H       -1.65484874      -3.35896121       3.46660239
H       -3.40036163      -4.78263754       4.48234922
H       -5.27770238      -5.60059871       3.07786321
H       -5.37345832      -5.07236461       0.71122488
H       -3.96528600      -3.30404787      -5.62679506
H       -2.28446709      -2.78922465      -5.44808606
H       -3.63602752      -1.64020437      -5.14415880
C       -0.88884114       0.88884114       0.88884114
C       -2.24200310       0.88567657       0.54937697
C       -3.14329453       1.67195871       1.25941713
C       -2.70674305       2.50640477       2.29709562
C       -1.33864196       2.56350811       2.61783202
C       -0.43556090       1.70059433       1.94619555
C        0.96079342       1.61363763       2.45505265
O        1.69217034       0.66824928       2.18402605
C        1.49448368       2.67690065       3.32843177
C        2.88478075       2.72131190       3.54156494
C        3.45303108       3.76732442       4.25955729
C        2.64099190       4.79551809       4.70980869
C        1.25751277       4.74777986       4.48900580
C        0.64015105       3.64181413       3.87767568
C       -0.83909753       3.47115786       3.69745432
C       -1.77671126       4.00241395       4.52429723
Br      -1.44992858       4.78798397       6.21820652
C       -3.24723848       3.97140347       4.18078560
O       -4.06119719       4.58562788       4.87315571
N       -3.63397148       3.25654096       3.06368747
C       -5.05956117       3.19449716       2.75448223
H       -2.61382269       0.25257959      -0.25477083
H       -4.19053067       1.59564926       0.98100636
H        3.52869500       1.94448894       3.13141362
H        4.52584497       3.79180258       4.43469233
H        3.07602065       5.64257219       5.23388635
H        0.68737493       5.61566729       4.80630570
H       -5.65148875       3.86657125       3.37806892
H       -5.42106977       2.17379256       2.92691547
H       -5.22515376       3.48527297       1.70996395
C        0.88884114      -0.88884114       0.88884114
C        0.64686926      -0.77234262       2.25784477
C        1.40531904      -1.50234899       3.16700235
C        2.44576803      -2.33357435       2.73090105
C        2.73954707      -2.42201541       1.35841962
C        1.91251380      -1.73974908       0.43008790
C        2.09918278      -2.02733333      -1.01861924
O        1.23168903      -1.77533295      -1.84691699
C        3.35053911      -2.65120106      -1.49089143
C        3.61784524      -2.63263670      -2.87238585
C        4.83236937      -3.10143526      -3.35995400
C        5.79828073      -3.53017861      -2.46412446
C        5.52743476      -3.54061504      -1.08877691
C        4.26452341      -3.19210694      -0.57729159
C        3.86684769      -3.27423951       0.86662251
C        4.38952876      -4.15908114       1.75481253
Br       5.47144839      -5.65608394       1.32858674
C        4.10364549      -4.06107819       3.23470387
O        4.70298735      -4.78344716       4.03354628
N        3.17431477      -3.12793766       3.65194748
C        2.86967989      -3.06058086       5.07827980
H       -0.15075110      -0.13165755       2.63072501
H        1.14333926      -1.40693864       4.21690838
H        2.88111488      -2.23545909      -3.56936641
H        5.03075603      -3.09888361      -4.42898969
H        6.76924731      -3.85772815      -2.82653758
H        6.34853804      -3.82283533      -0.43677531
H        3.54500414      -3.67251048       5.67861430
H        1.84963124      -3.42612630       5.24602026
H        2.96540977      -2.02582790       5.42915301
