158
Properties=species:S:1:pos:R:3 pbc="F F F"
C        1.79078566       1.79078566      -1.79078566
C        1.33920663       3.04205765      -2.19347174
C        2.14903407       3.84880414      -3.00368818
C        3.42164251       3.42035851      -3.42027127
C        3.84986740       2.15179800      -3.00093910
C        3.04247498       1.34098164      -2.19240517
N        4.23677127       4.24995165      -4.23555711
N        3.84835568       5.54342026      -4.62139161
C        4.82331459       6.16939903      -5.36278550
O        4.84876334       7.33175163      -5.71736199
C        5.85726632       5.13939901      -5.57625947
C        6.93841246       5.36864939      -6.33419143
C        8.00125157       4.38834153      -6.58141571
C        9.10099003       4.38194408      -5.70805384
C       10.09956143       3.45666345      -5.92765110
O       11.22713729       3.31449176      -5.18084704
C       11.86480373       2.21126345      -5.85776962
O       11.12690094       1.73970649      -7.00455951
C       10.04210979       2.55901597      -6.96676765
C        8.98341994       2.53269286      -7.84757338
C        7.95173244       3.45806436      -7.64942571
Br       6.49491950       3.41912136      -8.87249150
C        5.47427900       3.91918707      -4.81667499
O        6.13326584       2.89717064      -4.74959559
H        0.35881811       3.40042242      -1.88928923
H        1.74208089       4.80795210      -3.30615834
H        4.82126882       1.75485704      -3.28272767
H        3.40698414       0.36323785      -1.88689327
H        3.16840537       6.08687606      -4.10878242
H        7.07150913       6.33063182      -6.82524686
H        9.17392788       5.07324938      -4.87504447
H       11.97936735       1.38301981      -5.14890181
H       12.85937813       2.53148804      -6.18869266
H        8.96132013       1.81379424      -8.65859879
C       -1.79078566      -1.79078566      -1.79078566
C       -2.99672889      -1.30040564      -2.27760151
C       -3.80494442      -2.11149056      -3.08509141
C       -3.41987140      -3.42122555      -3.42117536
C       -2.19910592      -3.89036253      -2.91313605
C       -1.38879379      -3.08340173      -2.10366627
N       -4.24398967      -4.23166787      -4.24662250
N       -5.44286161      -3.76227843      -4.80802750
C       -6.03619312      -4.70929159      -5.61001442
O       -6.99533801      -4.56079647      -6.34174248
C       -5.21523649      -5.92218248      -5.43550584
C       -5.54183777      -7.08666007      -6.01275544
C       -4.76602306      -8.32454339      -5.88044235
C       -3.77229243      -8.57913398      -6.83956154
C       -3.03169194      -9.73578983      -6.71639421
O       -2.03616720     -10.13290356      -7.55340533
C       -1.63357880     -11.37031113      -6.92994687
O       -2.41037547     -11.70098724      -5.75980424
C       -3.24479677     -10.62913168      -5.69396496
C       -4.21021023     -10.41935896      -4.73411700
C       -4.97719516      -9.25209404      -4.82993331
Br      -6.31189352      -8.97110513      -3.50353370
C       -4.04843486      -5.58491389      -4.57679231
O       -3.15522048      -6.35415406      -4.27065753
H       -3.32275271      -0.29233357      -2.03344347
H       -4.74500251      -1.68819664      -3.42299218
H       -1.83632384      -4.89100363      -3.13152606
H       -0.44917717      -3.48054738      -1.72739071
H       -5.63370069      -2.78049154      -4.94987162
H       -6.44026821      -7.16535684      -6.62176275
H       -3.57520289      -7.89161424      -7.65540460
H       -0.57917092     -11.29128030      -6.64083774
H       -1.73849122     -12.18058035      -7.66048726
H       -4.35779377     -11.13895968      -3.93695972
C       -1.79078566       1.79078566       1.79078566
C       -3.00060956       1.30329691       2.27082956
C       -3.80881076       2.11438468       3.07833094
C       -3.41987122       3.42122033       3.42118075
C       -2.19522504       3.88749164       2.91988782
C       -1.38490293       3.08052743       2.11043143
N       -4.24404928       4.23165758       4.24657318
N       -5.44701668       3.76483372       4.80131715
C       -6.03977387       4.71101017       5.60471508
O       -7.00242104       4.56343849       6.33201743
C       -5.21330158       5.92129389       5.43832932
C       -5.53756795       7.08475982       6.01892551
C       -4.75630606       8.32004803       5.89465472
C       -3.76541264       8.56684061       6.85873470
C       -3.01972450       9.72100703       6.74314444
O       -2.02598105      10.11079967       7.58569538
C       -1.61597737      11.34906083       6.96879860
O       -2.38676533      11.68749863       5.79690299
C       -3.22517922      10.61925913       5.72345506
C       -4.18757449      10.41717336       4.75893833
C       -4.95957954       9.25261249       4.84703048
Br      -6.29007169       8.98224836       3.51421231
C       -4.04442797       5.58278499       4.58292809
O       -3.14693976       6.34966037       4.28343193
H       -3.32966694       0.29751711       2.02134571
H       -4.75189107       1.69351084       3.41078942
H       -1.82933655       4.88579624       3.14372074
H       -0.44221478       3.47540803       1.73949245
H       -5.64233034       2.78326065       4.93847285
H       -6.43810599       7.16462241       6.62465941
H       -3.57432707       7.87529422       7.67260045
H       -0.56074495      11.26696632       6.68357769
H       -1.72058220      12.15682697       7.70214966
H       -4.32910180      11.14052783       3.96408353
C        1.79078566      -1.79078566       1.79078566
C        1.29087561      -2.98321979       2.30064063
C        2.10091610      -3.78995480       3.11065548
C        3.42163175      -3.42044720       3.42019336
C        3.89825347      -2.21029156       2.89405947
C        3.09099564      -1.39955838       2.08530777
N        4.23588903      -4.24997329       4.23641772
N        3.79522520      -5.48956465       4.72837770
C        4.77629116      -6.13116701       5.44804096
O        4.75380982      -7.26894020       5.87512694
C        5.88277851      -5.15938018       5.53076611
C        6.99486607      -5.41171703       6.23467017
C        8.12928840      -4.48924327       6.35247714
C        9.16834107      -4.60751109       5.41513579
C       10.23360310      -3.73735712       5.51291576
O       11.31687586      -3.71448331       4.69111692
C       12.06320713      -2.61577957       5.25485010
O       11.43143924      -2.02828312       6.41144459
C       10.29856384      -2.77620698       6.49312259
C        9.30287446      -2.62756010       7.43325163
C        8.20601506      -3.49434696       7.35886050
Br       6.83677615      -3.28641844       8.66333777
C        5.52637227      -3.96545037       4.71831843
O        6.24068214      -2.99437064       4.54497928
H        0.27278851      -3.29504699       2.08069425
H        1.65675411      -4.70043178       3.49900544
H        4.90828658      -1.86082294       3.08974401
H        3.49381828      -0.46798906       1.69530792
H        3.05156753      -6.01795900       4.29453731
H        7.10067980      -6.34858657       6.77812144
H        9.14476477      -5.35158120       4.62587576
H       12.18177539      -1.84147431       4.48803927
H       13.05579664      -2.97913645       5.54462574
H        9.37734136      -1.86064718       8.19572463
C       -0.00445707       0.01189536      -1.78238275
H       -0.66409135       0.67374010      -2.43557963
H        0.65740317      -0.63156657      -2.45157240
C       -0.90989263      -0.90692880      -0.91072765
C        0.90977584       0.90977584      -0.90977584
C       -0.00465871       1.77757030       0.00794375
H       -0.66225468       2.44313916      -0.64384735
H        0.64322798       2.43503045       0.67728295
C       -1.78241447       0.00034974      -0.00472694
H       -2.45427497      -0.65498947       0.64260836
H       -2.43311707       0.67328779      -0.65473579
C       -0.91132561       0.90220522       0.91563759
C       -0.01476271      -0.02253852       1.78660255
H       -0.67934791      -0.69751639       2.42135241
H        0.63392994       0.61504881       2.47327442
C        0.01484550      -1.77751727      -0.01636693
H        0.67870853      -2.42144646      -0.68295456
H       -0.62264859      -2.45592969       0.64226336
C        1.78714474       0.01002794       0.00389507
H        2.44202412       0.67113390       0.66197326
H        2.45385902      -0.65136977      -0.64189061
C        0.91606151      -0.90478549       0.90901405
