182
Properties=species:S:1:pos:R:3 pbc="F F F"
C        1.79349834       1.79349834      -1.79349834
C        1.92073946       1.50947301      -3.14836221
C        2.72403197       2.32815699      -3.94993291
C        3.41635848       3.43299909      -3.43026539
C        3.26165797       3.68304496      -2.05684182
C        2.46132366       2.87810049      -1.23941685
N        4.15375023       4.18023122      -4.28306468
N        5.07400859       5.13089676      -3.63451514
C        5.88305695       5.84072031      -4.62694422
H        5.33541366       6.20189361      -5.50474244
C        7.02081124       4.95684415      -5.07927301
N        8.21459912       5.40341516      -4.80629919
N        8.02129856       6.60911475      -4.15801611
C        9.07629288       7.39001137      -3.72336439
S       10.65049113       6.68877317      -3.81062729
C       11.32718615       8.11527707      -3.15457062
C       10.34028448       9.05291820      -2.92942604
N        9.06187094       8.62048905      -3.24804209
C       10.57522654      10.40723404      -2.42310548
C        9.49705074      11.30183154      -2.32478146
C        9.68452644      12.61223993      -1.87109589
C       10.95760811      13.03991463      -1.50734300
Br      11.22304036      14.81116025      -0.90122538
C       12.04153948      12.16970778      -1.58849075
C       11.84958017      10.86015186      -2.04317867
C        6.67444149       7.01023587      -4.04358218
O        6.23765935       8.08505976      -3.64009812
C        6.81002394       3.68060545      -5.82730488
H        1.41023550       0.66923863      -3.60052833
H        2.82833604       2.11459757      -5.01037963
H        3.78261026       4.53758449      -1.62969703
H        2.37946498       3.12411396      -0.18888660
H       12.39091830       8.17613332      -2.99496125
H        8.49439603      10.97527669      -2.60738295
H        8.82811022      13.27787626      -1.81049294
H       13.03771587      12.49474481      -1.30336583
H       12.71520819      10.20699180      -2.09266911
H        7.72199876       3.41370828      -6.36943582
H        5.99912615       3.80043851      -6.55025792
H        6.57123608       2.87485605      -5.12952646
C       -1.79349834      -1.79349834      -1.79349834
C       -2.15581700      -3.06343335      -1.35932434
C       -2.97108073      -3.86067908      -2.17036206
C       -3.43670702      -3.42291386      -3.42000207
C       -3.04569502      -2.13486496      -3.82098477
C       -2.23350605      -1.32172285      -3.02361211
N       -4.23647139      -4.25317916      -4.12739559
N       -4.44517636      -3.86169978      -5.53254435
C       -5.25796213      -4.85277861      -6.23998074
H       -6.13439770      -5.21608531      -5.69156669
C       -4.39519684      -6.02785554      -6.63387602
N       -4.27967941      -6.22790782      -7.91672623
N       -5.03431432      -5.23715442      -8.51696068
C       -5.16209696      -5.13748593      -9.89008575
S       -4.14860037      -6.15963178     -10.84165945
C       -4.82194268      -5.50478637     -12.27030479
C       -5.79079620      -4.57306614     -11.95876639
N       -5.96487802      -4.36692435     -10.59859970
C       -6.60704033      -3.85673264     -12.94179309
C       -7.62709621      -3.00035903     -12.49620850
C       -8.44584230      -2.31860796     -13.40341200
C       -8.24821337      -2.48619371     -14.77045867
Br      -9.35462685      -1.57624621     -16.00455293
C       -7.23861610      -3.32369194     -15.23742998
C       -6.42239358      -4.00391380     -14.32660333
C       -5.71765836      -4.38924900      -7.62135219
O       -6.55163512      -3.52666489      -7.88451722
C       -3.75005730      -6.93281028      -5.63506669
H       -1.82365496      -3.45116806      -0.40517944
H       -3.26051445      -4.85424212      -1.83855668
H       -3.39835209      -1.76852191      -4.78301778
H       -1.96894383      -0.33719977      -3.38632194
H       -4.47841404      -5.85359248     -13.23000635
H       -7.78945149      -2.86206547     -11.42553871
H       -9.22697933      -1.66638942     -13.02311067
H       -7.07575875      -3.45730297     -16.30276479
H       -5.64363346      -4.64748914     -14.72374650
H       -3.50948874      -7.89133234      -6.10432178
H       -4.43234944      -7.11630334      -4.80116979
H       -2.82494063      -6.48298888      -5.26768908
C       -1.79349834       1.79349834       1.79349834
C       -1.97550712       3.13315557       1.46991200
C       -2.79210881       3.93103087       2.27898219
C       -3.43622445       3.42474945       3.41864905
C       -3.22395599       2.06731006       3.71027871
C       -2.41352023       1.25268983       2.91263095
N       -4.22259057       4.26395065       4.13050491
N       -4.62545092       3.75906049       5.45490907
C       -5.40853437       4.75869893       6.18348819
H       -6.17714530       5.27102942       5.59387498
C       -4.48155454       5.78431640       6.79105745
N       -4.49075287       5.84025263       8.09330796
N       -5.40351696       4.88486253       8.50004993
C       -5.69346754       4.66263085       9.83357024
S       -4.69522387       5.46415127      10.99051645
C       -5.58653330       4.74850532      12.26199522
C       -6.60315197       3.96706851      11.75240824
N       -6.64381504       3.91943319      10.36715385
C       -7.59206826       3.25140143      12.56209637
C       -8.63674008       2.56365308      11.92327059
C       -9.61617257       1.89007485      12.66161484
C       -9.55687444       1.89626705      14.05172424
Br     -10.88020332       0.99641662      15.05880605
C       -8.52683161       2.56437537      14.70853103
C       -7.54964236       3.23708819      13.96618016
C       -6.06411270       4.21304448       7.45110236
O       -7.00472985       3.42711532       7.53097205
C       -3.64107635       6.70718660       5.96967131
H       -1.50142149       3.57520987       0.60337111
H       -2.94128667       4.97901805       2.03300852
H       -3.71703627       1.64790414       4.58495137
H       -2.29147973       0.21331635       3.18766946
H       -5.31921520       4.95847190      13.28432578
H       -8.69137622       2.55268995      10.83298950
H      -10.41142885       1.37087282      12.13417775
H       -8.47157288       2.57118918      15.79306445
H       -6.75948857       3.74631869      14.50906184
H       -3.35941082       7.58074061       6.56499143
H       -4.20388609       7.04871959       5.09721689
H       -2.73058690       6.19591110       5.64912060
C        1.79349834      -1.79349834       1.79349834
C        1.81295478      -1.59618364       3.16943626
C        2.61742259      -2.41467951       3.97001977
C        3.41660988      -3.43388577       3.42912731
C        3.36866804      -3.59786551       2.03501121
C        2.56911979      -2.79176027       1.21796095
N        4.14722189      -4.18905176       4.28077248
N        5.17099081      -5.03113037       3.63729931
C        5.96132602      -5.75407628       4.63531919
H        5.38436723      -6.20970981       5.44797267
C        7.00363286      -4.83189168       5.22140386
N        8.24057845      -5.18042065       5.00331437
N        8.17339995      -6.34838798       4.26664149
C        9.30573760      -7.02753690       3.85639414
S       10.81875300      -6.23372178       4.09741681
C       11.63343145      -7.56472796       3.39887443
C       10.73033152      -8.54639007       3.04590714
N        9.40716741      -8.22056493       3.30266975
C       11.09057060      -9.84443848       2.47055698
C       10.08543292     -10.79791718       2.24031365
C       10.39198105     -12.05896209       1.71691911
C       11.71242623     -12.37727850       1.41516100
Br      12.13829158     -14.08151544       0.71561897
C       12.72609003     -11.44652156       1.62712644
C       12.41507255     -10.18668439       2.15115376
C        6.86771477      -6.82685939       4.03368539
O        6.53327634      -7.89720001       3.53234088
C        6.65721320      -3.62671787       6.03400320
H        1.21742934      -0.82397794       3.63859519
H        2.63794747      -2.26864426       5.04672152
H        3.97396643      -4.38536646       1.59055889
H        2.57254207      -2.96933852       0.15058495
H       12.70691301      -7.54551719       3.30958268
H        9.04643684     -10.55717625       2.47344257
H        9.58934134     -12.77278033       1.55435775
H       13.75869505     -11.68599578       1.39113567
H       13.22846351      -9.48392276       2.30248282
H        7.51160043      -3.33954529       6.65399715
H        5.81150719      -3.84840704       6.68990834
H        6.40890112      -2.79178374       5.37493374
C       -0.00445707       0.01189536      -1.78238275
H       -0.66409135       0.67374010      -2.43557963
H        0.65740317      -0.63156657      -2.45157240
C       -0.90989263      -0.90692880      -0.91072765
C        0.90977584       0.90977584      -0.90977584
C       -0.00465871       1.77757030       0.00794375
H       -0.66225468       2.44313916      -0.64384735
H        0.64322798       2.43503045       0.67728295
C       -1.78241447       0.00034974      -0.00472694
H       -2.45427497      -0.65498947       0.64260836
H       -2.43311707       0.67328779      -0.65473579
C       -0.91132561       0.90220522       0.91563759
C       -0.01476271      -0.02253852       1.78660255
H       -0.67934791      -0.69751639       2.42135241
H        0.63392994       0.61504881       2.47327442
C        0.01484550      -1.77751727      -0.01636693
H        0.67870853      -2.42144646      -0.68295456
H       -0.62264859      -2.45592969       0.64226336
C        1.78714474       0.01002794       0.00389507
H        2.44202412       0.67113390       0.66197326
H        2.45385902      -0.65136977      -0.64189061
C        0.91606151      -0.90478549       0.90901405
