161
Properties=species:S:1:pos:R:3 pbc="F F F"
C        0.00000000       0.00000000       0.00000000
C        0.88359432       0.88359432      -0.88359432
C        1.01083544       0.59956899      -2.23845819
C        1.81412794       1.41825297      -3.04002888
C        2.50645445       2.52309507      -2.52036137
C        2.35175395       2.77314094      -1.14693780
C        1.55141964       1.96819647      -0.32951283
N        3.24384621       3.27032720      -3.37316065
N        4.16410457       4.22099273      -2.72461111
C        4.97315293       4.93081629      -3.71704020
H        4.42550964       5.29198958      -4.59483841
C        6.11090722       4.04694012      -4.16936898
N        7.30469509       4.49351113      -3.89639517
N        7.11139453       5.69921072      -3.24811209
C        8.16638885       6.48010735      -2.81346036
S        9.74058711       5.77886914      -2.90072327
C       10.41728213       7.20537305      -2.24466660
C        9.43038045       8.14301418      -2.01952202
N        8.15196692       7.71058502      -2.33813807
C        9.66532252       9.49733001      -1.51320145
C        8.58714671      10.39192752      -1.41487744
C        8.77462242      11.70233591      -0.96119186
C       10.04770409      12.13001061      -0.59743897
Br      10.31313633      13.90125623       0.00867864
C       11.13163546      11.25980376      -0.67858673
C       10.93967615       9.95024784      -1.13327464
C        5.76453746       6.10033185      -3.13367816
O        5.32775532       7.17515574      -2.73019410
C        5.90011992       2.77070142      -4.91740085
H        0.50033148      -0.24066539      -2.69062430
H        1.91843202       1.20469355      -4.10047560
H        2.87270624       3.62768046      -0.71979301
H        1.46956096       2.21420993       0.72101743
H       11.48101428       7.26622930      -2.08505723
H        7.58449200      10.06537266      -1.69747893
H        7.91820620      12.36797224      -0.90058891
H       12.12781184      11.58484079      -0.39346180
H       11.80530417       9.29708778      -1.18276508
H        6.81209473       2.50380426      -5.45953180
H        5.08922213       2.89053448      -5.64035389
H        5.66133206       1.96495203      -4.21962244
C       -0.88359432      -0.88359432      -0.88359432
C       -1.21469918      -2.16768848      -0.46647496
C       -2.03021196      -2.96501700      -1.27718084
C       -2.52674451      -2.51331783      -2.50984854
C       -2.16667098      -1.21118791      -2.89397379
C       -1.35477336      -0.39777705      -2.09657852
N       -3.32424652      -3.34525031      -3.21783723
N       -3.56597978      -2.93224548      -4.61148315
C       -4.37357929      -3.92517752      -5.32225261
H       -5.23297951      -4.31453153      -4.76482660
C       -3.49705016      -5.07674913      -5.75341703
N       -3.40166590      -5.25130139      -7.04163410
N       -4.18514086      -4.26393829      -7.60963819
C       -4.34008747      -4.14173113      -8.97813797
S       -3.32596955      -5.12750786      -9.96670211
C       -4.03740129      -4.45939260     -11.37052788
C       -5.01708694      -3.55156253     -11.02426718
N       -5.16969649      -3.37341005      -9.65758347
C       -5.86424705      -2.83271524     -11.97889170
C       -6.89127031      -2.00358774     -11.49909362
C       -7.73890113      -1.32073445     -12.37851461
C       -7.56357980      -1.45978339     -13.75179047
Br      -8.70897142      -0.54819473     -14.94854777
C       -6.54774998      -2.26984691     -14.25242905
C       -5.70260264      -2.95128397     -13.36931201
C       -4.86708811      -3.44522072      -6.68623864
O       -5.72131640      -2.59357243      -6.91821633
C       -2.81721994      -5.98760560      -4.78339666
H       -0.85795998      -2.56647635       0.47414594
H       -2.29536860      -3.96962500      -0.95860757
H       -2.54365576      -0.83402032      -3.84250363
H       -1.11488730       0.59789523      -2.44576139
H       -3.70540422      -4.78429977     -12.34259681
H       -7.03627960      -1.88778660     -10.42327740
H       -8.52458587      -0.69008893     -11.97209255
H       -6.40222515      -2.38105469     -15.32283459
H       -4.91976247      -3.57302732     -13.79236723
H       -2.56800491      -6.93283457      -5.27459131
H       -3.48052711      -6.19879986      -3.94078354
H       -1.89378782      -5.52749611      -4.42462259
C       -0.88359432       0.88359432       0.88359432
C       -1.03304177       2.23264296       0.58317789
C       -1.84985840       3.03067205       1.39187934
C       -2.52619493       2.51519187       2.50852408
C       -2.34621130       1.14838927       2.77723211
C       -1.53611076       0.33352181       1.97949637
N       -3.31005417       3.35582259       3.22145730
N       -3.74886783       2.83335030       4.52749029
C       -4.52665552       3.83396570       5.26038820
H       -5.27329836       4.37282566       4.66621361
C       -3.59213351       4.82896715       5.90611566
N       -3.62608414       4.85972309       7.20879416
N       -4.56515922       3.91490170       7.57865642
C       -4.88578723       3.67256049       8.90160884
S       -3.89529263       4.43144654      10.09344035
C       -4.82541752       3.70902349      11.33288076
C       -5.84673663       2.95798064      10.78819939
N       -5.86081932       2.93812716       9.40174353
C       -6.86526642       2.24645981      11.56412775
C       -7.91023984       1.59214089      10.89157093
C       -8.91705459       0.92389276      11.59720284
C       -8.88524685       0.90185483      12.98805199
Br     -10.24556161       0.00901733      13.95113497
C       -7.85563579       1.53648173      13.67790842
C       -6.85100075       2.20398726      12.96821062
C       -5.21775572       3.27686539       6.50392636
O       -6.17488840       2.50835304       6.54986372
C       -2.71772024       5.75078457       5.11971739
H       -0.53333983       2.68198032      -0.26502976
H       -1.97370368       4.08600146       1.16389603
H       -2.86462122       0.72191026       3.63364824
H       -1.43980155      -0.71322425       2.23617616
H       -4.57440591       3.89370967      12.36418523
H       -7.94343060       1.60348270       9.80043030
H       -9.71163961       0.43093760      11.04419014
H       -7.82178936       1.52109170      14.76323337
H       -6.06201680       2.68677547      13.53636475
H       -2.43097921       6.60682652       5.73762506
H       -3.25635181       6.12033266       4.24342603
H       -1.81117012       5.22787489       4.80686152
C        0.88359432      -0.88359432       0.88359432
C        0.86152802      -0.72306630       2.26426830
C        1.66647680      -1.54144730       3.06448570
C        2.50684325      -2.52430751       2.51876012
C        2.50002217      -2.65178236       1.12002815
C        1.70075705      -1.84520913       0.30316275
N        3.23493579      -3.28272463       3.36967363
N        4.29763821      -4.07990742       2.73216278
C        5.08069245      -4.80850988       3.73180709
H        4.49507960      -5.30093698       4.51632105
C        6.08194333      -3.87540071       4.36987228
N        7.33315683      -4.18526687       4.17617769
N        7.31693859      -5.33427636       3.40750239
C        8.47759988      -5.97208884       3.01026784
S        9.96176493      -5.14556203       3.31285255
C       10.83017731      -6.43533581       2.60180865
C        9.96351082      -7.43051526       2.19889058
N        8.62573628      -7.14664831       2.42830542
C       10.37367736      -8.70263106       1.59954556
C        9.40105750      -9.67564444       1.31724972
C        9.75520578     -10.91359795       0.76934646
C       11.09124369     -11.18881787       0.49509211
Br      11.58122488     -12.86175403      -0.23726499
C       12.07347784     -10.23779229       0.75875581
C       11.71487938      -9.00118029       1.30713896
C        6.03122826      -5.84044964       3.12686957
O        5.73911557      -6.90528460       2.58870499
C        5.68185605      -2.70213719       5.20422896
H        0.23323532       0.02026138       2.73731645
H        1.65473143      -1.42405314       4.14481661
H        3.13784426      -3.41080466       0.67153079
H        1.73703918      -1.99374604      -0.76803176
H       11.90472516      -6.38550011       2.54207554
H        8.35016826      -9.46869080       1.52848453
H        8.97668810     -11.64362429       0.56645496
H       13.11802161     -10.44357090       0.54452192
H       12.50473461      -8.28161667       1.49880575
H        6.51157811      -2.40944588       5.85440680
H        4.82549084      -2.96361981       5.83099985
H        5.42850274      -1.85652716       4.56087662
