138
Properties=species:S:1:pos:R:3 pbc="F F F"
C        1.79298185       1.79298185      -1.79298185
C        2.35569481       1.24910557      -2.96074522
C        3.17199910       2.03685020      -3.77514064
C        3.39889907       3.35088268      -3.40384341
N        4.18913871       4.29359252      -4.05975313
C        4.19812248       5.49284055      -3.38599783
O        4.79210138       6.50627539      -3.67511595
C        3.28299814       5.28001679      -2.16599956
N        3.06051044       6.23142238      -1.31641532
N        2.20345542       5.96020372      -0.29517955
C        2.28077246       6.77330326       0.85489156
C        3.50020360       7.25814061       1.32227593
C        3.53042966       8.01551140       2.49028001
C        2.34419187       8.26030600       3.16725219
C        1.17674868       7.73266963       2.64332807
N        1.12043490       6.99347554       1.51234215
C        2.82617886       3.88497114      -2.24677273
C        2.02475845       3.11939019      -1.41847033
H        2.15891236       0.21205669      -3.22484580
H        4.71266290       4.13437989      -4.90903506
H        1.20600611       5.92436113      -0.51638035
H        4.41502018       7.05188494       0.77675089
H        4.47219562       8.40766250       2.86230360
H        2.32937472       8.84586202       4.07923338
H        0.22267897       7.89335674       3.13688564
H        1.59970094       3.51963166      -0.50526046
C        3.75788920       1.47519998      -4.96462869
C        4.24857216       1.00481792      -5.96082492
Br       5.04196501       0.24424990      -7.57158999
C       -1.79298185      -1.79298185      -1.79298185
C       -2.40826126      -2.92550290      -1.23178144
C       -3.21084101      -3.74909971      -2.02404922
C       -3.38284135      -3.41460905      -3.35617476
N       -4.12197977      -4.10477875      -4.31572584
C       -4.04693735      -3.48735745      -5.54266606
O       -4.55600431      -3.83340340      -6.58408501
C       -3.16654359      -2.24407462      -5.31839627
N       -2.90098908      -1.42336382      -6.28399524
N       -2.15047384      -0.33070019      -5.97766467
C       -1.48278719       0.31989529      -7.03629227
C       -0.93981605      -0.39429433      -8.10195789
C       -0.24647716       0.28860737      -9.09779126
C       -0.10388387       1.66527407      -8.99863588
C       -0.66266172       2.29866682      -7.90209533
N       -1.33923187       1.65903103      -6.92136745
C       -2.77546149      -2.28077536      -3.90168587
C       -1.96606837      -1.45781814      -3.13873246
H       -2.25264203      -3.16200627      -0.18116656
H       -4.63702179      -4.95974742      -4.15930864
H       -2.60856741       0.42394411      -5.46212428
H       -1.06257188      -1.47084364      -8.15673871
H        0.17488705      -0.25325752      -9.93918404
H        0.42903551       2.22990203      -9.75494090
H       -0.57648383       3.37408836      -7.77675461
H       -1.47004840      -0.59218390      -3.56236076
C       -3.83072377      -4.91579793      -1.45119617
C       -4.34987557      -5.89290770      -0.97143173
Br      -5.18930014      -7.47281154      -0.19569322
C       -1.79298185       1.79298185       1.79298185
C       -2.34566287       2.96718567       1.25269706
C       -3.14710016       3.79112562       2.04576416
C       -3.38070044       3.41552683       3.35739789
N       -4.12983984       4.09782267       4.31482185
C       -4.12299145       3.43423153       5.51973788
O       -4.65782526       3.76132046       6.55434699
C       -3.28018979       2.16780250       5.28102219
N       -3.08064266       1.30349055       6.22421494
N       -2.35905205       0.19528739       5.90449926
C       -1.75526338      -0.51751769       6.96143847
C       -1.22712184       0.13702976       8.07191667
C       -0.59653260      -0.60673461       9.06586306
C       -0.50001733      -1.98330252       8.92053087
C       -1.03987993      -2.55545911       7.78166941
N       -1.65584609      -1.85607312       6.80179532
C       -2.83536929       2.24087253       3.88168091
C       -2.02820027       1.41626070       3.11815800
H       -2.14247165       3.23540065       0.21794256
H       -4.60754383       4.97652091       4.17201311
H       -2.82444633      -0.52264916       5.34495042
H       -1.31297914       1.21474199       8.16243309
H       -0.18766043      -0.11165613       9.94155022
H       -0.01641945      -2.59432912       9.67391303
H       -0.98787376      -3.62813639       7.61941270
H       -1.57986276       0.51799646       3.52673384
C       -3.70271170       5.00005233       1.49495384
C       -4.16803636       6.01252846       1.03365019
Br      -4.92042698       7.64961672       0.28776120
C        1.79298185      -1.79298185       1.79298185
C        2.60902512      -1.19037199       2.76614849
C        3.42900944      -1.97904991       3.57593059
C        3.40641598      -3.35131227       3.39589691
N        4.15343898      -4.30923708       4.07980830
C        3.88472802      -5.57612328       3.61610956
O        4.37036546      -6.62237479       3.98075247
C        2.82173116      -5.38951711       2.51776621
N        2.33291153      -6.40116663       1.87426998
N        1.36720643      -6.13922101       0.95241126
C        1.14151662      -7.10668256      -0.04901502
C        2.18850397      -7.84440415      -0.59683985
C        1.92168581      -8.75226357      -1.61828833
C        0.61851171      -8.89248900      -2.07375502
C       -0.36249840      -8.11354434      -1.48495571
N       -0.12973679      -7.22435619      -0.49305110
C        2.58371079      -3.94123627       2.43297566
C        1.77289740      -3.17857580       1.61114576
H        2.60484048      -0.10852229       2.88245209
H        4.82550755      -4.12043167       4.81013864
H        0.43412053      -5.91062460       1.30200246
H        3.19976716      -7.71592189      -0.22553481
H        2.72599399      -9.34084978      -2.04928925
H        0.37346886      -9.58941675      -2.86688226
H       -1.39725470      -8.18385692      -1.80745214
H        1.15288644      -3.62777843       0.84392820
C        4.27371608      -1.35982479       4.56417700
C        4.98115788      -0.84122376       5.39183336
Br       6.12503145      -0.00268975       6.73008370
C       -0.00445707       0.01189536      -1.78238275
H       -0.66409135       0.67374010      -2.43557963
H        0.65740317      -0.63156657      -2.45157240
C       -0.90989263      -0.90692880      -0.91072765
C        0.90977584       0.90977584      -0.90977584
C       -0.00465871       1.77757030       0.00794375
H       -0.66225468       2.44313916      -0.64384735
H        0.64322798       2.43503045       0.67728295
C       -1.78241447       0.00034974      -0.00472694
H       -2.45427497      -0.65498947       0.64260836
H       -2.43311707       0.67328779      -0.65473579
C       -0.91132561       0.90220522       0.91563759
C       -0.01476271      -0.02253852       1.78660255
H       -0.67934791      -0.69751639       2.42135241
H        0.63392994       0.61504881       2.47327442
C        0.01484550      -1.77751727      -0.01636693
H        0.67870853      -2.42144646      -0.68295456
H       -0.62264859      -2.45592969       0.64226336
C        1.78714474       0.01002794       0.00389507
H        2.44202412       0.67113390       0.66197326
H        2.45385902      -0.65136977      -0.64189061
C        0.91606151      -0.90478549       0.90901405
