117
Properties=species:S:1:pos:R:3 pbc="F F F"
C        0.00000000       0.00000000       0.00000000
C        0.88307782       0.88307782      -0.88307782
C        1.44579079       0.33920154      -2.05084119
C        2.26209508       1.12694618      -2.86523661
C        2.48899505       2.44097865      -2.49393939
N        3.27923468       3.38368850      -3.14984911
C        3.28821845       4.58293653      -2.47609381
O        3.88219736       5.59637136      -2.76521192
C        2.37309411       4.37011276      -1.25609553
N        2.15060641       5.32151836      -0.40651129
N        1.29355140       5.05029970       0.61472448
C        1.37086844       5.86339924       1.76479559
C        2.59029957       6.34823658       2.23217996
C        2.62052564       7.10560737       3.40018403
C        1.43428785       7.35040198       4.07715622
C        0.26684465       6.82276560       3.55323210
N        0.21053088       6.08357152       2.42224617
C        1.91627483       2.97506711      -1.33686871
C        1.11485443       2.20948616      -0.50856630
H        1.24900834      -0.69784733      -2.31494178
H        3.80275888       3.22447586      -3.99913104
H        0.29610208       5.01445711       0.39352367
H        3.50511616       6.14198091       1.68665492
H        3.56229159       7.49775848       3.77220763
H        1.41947070       7.93595800       4.98913741
H       -0.68722505       6.98345272       4.04678966
H        0.68979692       2.60972763       0.40464356
C        2.84798518       0.56529595      -4.05472466
C        3.33866814       0.09491389      -5.05092090
Br       4.13206099      -0.66565412      -6.66168596
C       -0.88307782      -0.88307782      -0.88307782
C       -1.56934998      -1.96389967      -0.30258387
C       -2.37326338      -2.78701385      -1.09400064
C       -2.47541152      -2.50349734      -2.44500423
N       -3.20331831      -3.20326711      -3.40618687
C       -3.05100634      -2.64300637      -4.65323608
O       -3.53101482      -3.01231894      -5.70044688
C       -2.12780794      -1.42868935      -4.44280512
N       -1.78736258      -0.66210515      -5.42916833
N       -1.00370554       0.41077657      -5.13619765
C       -0.26534056       0.98689900      -6.19103054
C        0.28992226       0.20553300      -7.20181145
C        1.05269013       0.81555271      -8.19419181
C        1.25034006       2.18813748      -8.14601116
C        0.67453454       2.89083753      -7.10175023
N       -0.06900242       2.32266072      -6.12551451
C       -1.79761718      -1.42036129      -3.01023218
C       -0.98571750      -0.59943255      -2.24775684
H       -1.46767893      -2.16107582       0.76265197
H       -3.76080837      -4.02864921      -3.23690820
H       -1.44973853       1.20527150      -4.67256848
H        0.12319091      -0.86637673      -7.21725634
H        1.48472269       0.22091305      -8.99347819
H        1.83796188       2.69706887      -8.90132204
H        0.80178570       3.96617990      -7.01740361
H       -0.43570090       0.22585076      -2.68503085
C       -3.06608771      -3.90125841      -0.50065967
C       -3.64632809      -4.83443823      -0.00373661
Br      -4.58452770      -6.34331108       0.79974595
C       -0.88307782       0.88307782       0.88307782
C       -1.54436611       1.98264474       0.30882267
C       -2.34780544       2.80594040       1.10053202
C       -2.47453505       2.50394312       2.44543493
N       -3.20638074       3.20025098       3.40614057
C       -3.08125297       2.61927683       4.64671899
O       -3.57146737       2.98018138       5.69213189
C       -2.17313978       1.39442809       4.43173454
N       -1.85905410       0.60821324       5.41136873
N       -1.08710249      -0.47189883       5.11392297
C       -0.37338813      -1.07471801       6.17080196
C        0.17811240      -0.31693509       7.20140369
C        0.91666272      -0.95308371       8.19569540
C        1.09458857      -2.32762702       8.12974920
C        0.52422478      -3.00595384       7.06655678
N       -0.19596471      -2.41216899       6.08806051
C       -1.82152669       1.40241744       3.00426652
C       -1.01050716       0.58075591       2.24164383
H       -1.42370993       2.19407959      -0.75168674
H       -3.74891960       4.03637817       3.24106801
H       -1.53785046      -1.25259098       4.63177603
H        0.02712197       0.75702074       7.23054339
H        1.34537635      -0.37698107       9.01019987
H        1.66311290      -2.85654209       8.88594628
H        0.63673271      -4.08172132       6.96789203
H       -0.47948317      -0.25914415       2.67454196
C       -3.01495364       3.93921241       0.51383974
C       -3.57369025       4.88832772       0.02248495
Br      -4.47712010       6.42296690      -0.77199418
C        0.88307782      -0.88307782       0.88307782
C        1.79688147      -0.27655189       1.76240016
C        2.61812504      -1.06598591       2.57016692
C        2.49921712      -2.44228062       2.48241535
N        3.22909495      -3.40323775       3.18043958
C        2.85292820      -4.67589828       2.81842231
O        3.29606337      -5.72732778       3.22038950
C        1.73359355      -4.48790736       1.77780151
N        1.14213164      -5.50298948       1.23351494
N        0.13593168      -5.23548002       0.35771491
C       -0.21426276      -6.24590216      -0.56216731
C        0.74700680      -7.08317596      -1.12382656
C        0.35820930      -8.03277021      -2.06503053
C       -0.97823306      -8.11487928      -2.42911261
C       -1.86856086      -7.23835929      -1.83342027
N       -1.51677326      -6.30694379      -0.91831431
C        1.58023365      -3.03510312       1.61287388
C        0.76572861      -2.27292586       0.79425242
H        1.86703378       0.80834232       1.80741132
H        3.95805049      -3.21434165       3.85397364
H       -0.75630294      -4.92496263       0.74837583
H        1.78647192      -6.99877100      -0.82480076
H        1.09465353      -8.69837066      -2.50518174
H       -1.31734251      -8.84175776      -3.15812396
H       -2.92463162      -7.26027931      -2.08620969
H        0.07014619      -2.72685412       0.09788067
C        3.56249031      -0.44386604       3.46164945
C        4.35339623       0.07715936       4.20826606
Br       5.63222420       0.91961335       5.41548199
