153
Properties=species:S:1:pos:R:3 pbc="F F F"
C        0.00000000       0.00000000       0.00000000
C        0.88174575       0.88174575      -0.88174575
C        2.24533464       0.98846030      -0.61057437
C        3.04701850       1.80621050      -1.40959097
C        2.49609160       2.50724693      -2.48747162
C        1.12458498       2.39833792      -2.74055843
C        0.31604315       1.58469058      -1.94373091
N        3.26869692       3.37573564      -3.26750121
C        4.15821485       2.83857705      -4.04061557
C        4.97727051       3.71302096      -4.86076877
C        4.93395753       5.12423112      -4.89652188
C        5.87567395       5.57544982      -5.79690058
C        6.22524216       7.00200194      -6.05645252
N        6.51612601       4.46564471      -6.34841559
C        7.57216319       4.49888147      -7.31525114
C        7.54170181       5.42239781      -8.36983658
C        8.57649960       5.45996994      -9.31042725
C        9.63960665       4.56746936      -9.20563118
Br      11.03275670       4.61210607     -10.48228657
C        9.68233950       3.64174225      -8.16614310
C        8.65358953       3.61151340      -7.21838536
C        5.94164120       3.31759143      -5.78349216
C        6.27245662       1.92196021      -6.20778548
H        2.68898746       0.45357228       0.22562573
H        4.10393455       1.91348928      -1.18022131
H        0.68496958       2.96541018      -3.55826272
H       -0.74809420       1.51788716      -2.15203681
H        4.31909432       1.74894514      -4.10034229
H        4.28682910       5.75314017      -4.29538643
H        5.88940710       7.63274548      -5.22433521
H        5.72277569       7.36643019      -6.95711267
H        7.30468904       7.14970169      -6.15052010
H        6.70156206       6.09505078      -8.50951714
H        8.53577817       6.18081945     -10.12209310
H       10.51383544       2.94822523      -8.07685704
H        8.74250204       2.91489886      -6.38954030
H        5.41782433       1.25400816      -6.05705579
H        7.10448454       1.52801853      -5.61608874
H        6.51968044       1.86233930      -7.27149423
C       -0.88174575      -0.88174575      -0.88174575
C       -2.12479988      -1.30596205      -0.41360738
C       -2.92325690      -2.12359492      -1.21596816
C       -2.49248176      -2.50829746      -2.49003094
C       -1.23849564      -2.08338644      -2.94159924
C       -0.43317784      -1.26795887      -2.14332794
N       -3.25055216      -3.37218178      -3.28919985
C       -4.35513851      -2.90452600      -3.77774297
C       -5.16515222      -3.77684387      -4.60906415
C       -4.89455898      -5.12381954      -4.93633201
C       -5.90995028      -5.59915401      -5.73892007
C       -6.06117411      -7.00299196      -6.21953055
N       -6.82514867      -4.56560577      -5.93943187
C       -8.03420731      -4.64963170      -6.70245679
C       -8.06372067      -5.35821164      -7.91200389
C       -9.24624966      -5.44651323      -8.65413390
C      -10.40014639      -4.81793448      -8.19462633
Br     -11.99527318      -4.92934804      -9.20252811
C      -10.38589849      -4.10717901      -6.99714735
C       -9.20652693      -4.02838553      -6.24857583
C       -6.34853101      -3.43606838      -5.25812540
C       -6.98701756      -2.08534905      -5.32983569
H       -2.47317199      -1.01945430       0.57569227
H       -3.87875643      -2.47931623      -0.83957248
H       -0.88489418      -2.40486014      -3.91888817
H        0.54032122      -0.95335542      -2.50879557
H       -4.70470739      -1.87566799      -3.58800637
H       -4.04331150      -5.70028528      -4.59175893
H       -5.46326249      -7.68284358      -5.60038171
H       -5.69760326      -7.10233714      -7.24637814
H       -7.09709337      -7.34817851      -6.15963894
H       -7.16880058      -5.81393027      -8.32339912
H       -9.25061107      -5.99808771      -9.58999194
H      -11.28616365      -3.62115039      -6.63160367
H       -9.24113730      -3.51281972      -5.29298417
H       -6.24357961      -1.29311834      -5.19219033
H       -7.73603969      -1.97252835      -4.54002377
H       -7.45075892      -1.89992739      -6.30282764
C       -0.88174575       0.88174575       0.88174575
C       -0.42641527       1.27982228       2.13813175
C       -1.24005257       2.07444078       2.94832664
C       -2.50114640       2.48561177       2.50405198
C       -2.94839850       2.06950977       1.24557306
C       -2.14126802       1.27216297       0.43103365
N       -3.35628059       3.23527594       3.32037726
C       -3.01498211       4.46125331       3.56117206
C       -3.88018164       5.26442846       4.40645013
C       -5.07271864       4.84546652       5.03652537
C       -5.59064319       5.90177397       5.75560719
C       -6.78405683       5.85084387       6.64879593
N       -4.74694671       6.99936229       5.58387731
C       -4.91784075       8.29187484       6.17658021
C       -6.19328226       8.86597016       6.27468379
C       -6.36160043      10.12537083       6.85992553
C       -5.25413963      10.81920719       7.33936037
Br      -5.48080467      12.52505569       8.12128897
C       -3.98039687      10.26409933       7.24572865
C       -3.81285778       8.99947016       6.67116035
C       -3.70465584       6.60656206       4.73150689
C       -2.65838895       7.53753505       4.20627830
H        0.54946160       0.96591983       2.50047580
H       -0.89815976       2.35974479       3.93974059
H       -3.94069128       2.36036192       0.90758928
H       -2.50858588       0.95378338      -0.54053949
H       -2.09744627       4.91776903       3.15316646
H       -5.49858331       3.84953710       4.98723529
H       -7.00635983       4.81336686       6.92676109
H       -7.66827008       6.24129310       6.13675537
H       -6.62369390       6.40108348       7.58013345
H       -7.06883539       8.37438365       5.86291093
H       -7.35677107      10.55589355       6.92602610
H       -3.11444033      10.79936901       7.62510837
H       -2.81480727       8.57055912       6.66157481
H       -2.29498104       7.20606569       3.22784155
H       -1.79812824       7.56849409       4.88196948
H       -3.04434654       8.55019850       4.05896892
C        0.88174575      -0.88174575       0.88174575
C        0.56602966      -1.04873038       2.22960926
C        1.38156262      -1.84413355       3.03712381
C        2.50351967      -2.48553352       2.50175695
C        2.81327216      -2.29995445       1.15025471
C        2.00384208      -1.50335870       0.33726387
N        3.36632140      -3.24202952       3.30358287
C        2.91186243      -4.36580773       3.75973732
C        3.78198963      -5.17263559       4.59643502
C        5.09608220      -4.85422110       5.00440722
C        5.57530748      -5.87527072       5.79744615
C        6.88192810      -5.88511325       6.51665528
N        4.58437161      -6.85243947       5.89337523
C        4.67503778      -8.07115489       6.64010313
C        5.86883637      -8.80631243       6.65878741
C        5.96006288      -9.99309509       7.39373882
C        4.85497505     -10.45401378       8.10371836
Br       4.97568959     -12.06266681       9.08879294
C        3.66110060      -9.73717522       8.09194903
C        3.57283639      -8.54403055       7.36662135
C        3.48778429      -6.42374047       5.13120003
C        2.26797978      -7.25261393       4.88160860
H       -0.30004003      -0.55425667       2.66271739
H        1.15314257      -1.95012748       4.09437509
H        3.70186831      -2.77110831       0.73566588
H        2.26424013      -1.36607331      -0.70848367
H        1.89500206      -4.73282455       3.54055514
H        5.63223642      -3.94434935       4.75876993
H        7.27072627      -4.86392818       6.61183333
H        7.62680259      -6.46032331       5.95919266
H        6.78968819      -6.28489160       7.53033105
H        6.73062618      -8.50193387       6.07356993
H        6.89221516     -10.55092350       7.39555206
H        2.79856155     -10.08988846       8.65046770
H        2.64580860      -7.98025965       7.42087295
H        1.81181957      -6.99791687       3.91915184
H        1.51721821      -7.07389087       5.65748273
H        2.49816727      -8.32076771       4.83457897
