181
Properties=species:S:1:pos:R:3 pbc="F F F"
C        0.00000000       0.00000000       0.00000000
C        0.88197212       0.88197212      -0.88197212
C        2.04490250       0.35429504      -1.44355830
C        2.85552336       1.16301030      -2.24318585
C        2.48531252       2.48849562      -2.48952560
C        1.31669103       3.01435246      -1.93133691
C        0.51702124       2.20862785      -1.11679332
C        3.32764492       3.35868877      -3.33010011
N        4.59205207       3.12733030      -3.48466110
C        5.32640454       4.03258387      -4.28361232
C        5.92643016       3.50324948      -5.43119976
C        6.68940273       4.30543367      -6.27101309
C        6.85500954       5.65545131      -5.96732015
C        6.28808006       6.23468590      -4.81463585
C        6.47921395       7.60763149      -4.49824079
C        5.95270114       8.11573243      -3.30035751
C        5.21799465       7.31023317      -2.44043324
C        5.01749393       5.97105091      -2.75799139
C        5.52812757       5.40174431      -3.94446488
N        7.26954358       8.42169726      -5.34783665
C        6.92406588       9.65297898      -5.54340701
C        7.74002826      10.56845609      -6.36267558
C        7.60040251      11.94585470      -6.16350872
C        8.38263926      12.83479711      -6.90369994
C        9.28436599      12.34211225      -7.84791205
C        9.41761334      10.96839500      -8.05509369
C        8.64858943      10.07657790      -7.30360007
H        2.33077211      -0.67893653      -1.26409050
H        3.76667181       0.75734605      -2.67732545
H        1.03340542       4.04946812      -2.10369541
H       -0.38280495       2.62229082      -0.66835217
H        2.82995184       4.23272584      -3.79138392
H        5.80145033       2.44793571      -5.65975883
H        7.16157967       3.88098553      -7.15179199
H        7.46187317       6.26628748      -6.63716419
H        6.13724251       9.14632781      -3.01128836
H        4.82156532       7.71661607      -1.51400434
H        4.47466580       5.35563963      -2.04421374
H        6.01656347      10.09286378      -5.09154972
H        6.90918031      12.33445841      -5.42064646
H        8.28747481      13.90441444      -6.73402168
H       10.11767110      10.58320800      -8.79169681
H        8.75632698       9.00501867      -7.45633818
C       10.08784157      13.26099811      -8.61189880
C       10.76075237      14.03056503      -9.25173770
Br      11.84879222      15.27488964     -10.28630310
C       -0.88197212      -0.88197212      -0.88197212
C       -1.35923328      -2.09603130      -0.38749127
C       -2.15879112      -2.90618625      -1.19674213
C       -2.48967680      -2.48537261      -2.48828432
C       -2.01598726      -1.26589665      -2.98049648
C       -1.20117292      -0.46576440      -2.17550509
C       -3.33166964      -3.32627025      -3.35849392
N       -3.41304377      -4.60658847      -3.18441122
C       -4.22050994      -5.33596576      -4.08612504
C       -5.30943404      -6.01832441      -3.53312095
C       -6.15104866      -6.78330310      -4.33149774
C       -5.90862072      -6.86789018      -5.70127011
C       -4.81554643      -6.21587772      -6.30597766
C       -4.56037840      -6.32417718      -7.70053066
C       -3.41665405      -5.71362354      -8.23851350
C       -2.55344454      -4.97598089      -7.43923563
C       -2.81193877      -4.85676604      -6.07783143
C       -3.94194190      -5.45385639      -5.47853846
N       -5.41103330      -7.11636837      -8.51167582
C       -5.68529876      -6.72220002      -9.71295309
C       -6.50960983      -7.53352409     -10.62802600
C       -6.38758212      -7.31761121     -12.00457260
C       -7.13329223      -8.09256065     -12.89528344
C       -8.00663002      -9.06378727     -12.40397300
C       -8.13714771      -9.27356641     -11.03038791
C       -7.37937895      -8.51136255     -10.13802590
H       -1.11396115      -2.42199036       0.62002542
H       -2.52727122      -3.85672127      -0.81735083
H       -2.25413838      -0.94206344      -3.99036713
H       -0.81828555       0.47458832      -2.56414080
H       -3.86021587      -2.81099945      -4.18284628
H       -5.48990761      -5.95621841      -2.46301885
H       -6.98531756      -7.31952049      -3.88951915
H       -6.57851162      -7.47775837      -6.30905485
H       -3.17168802      -5.83326747      -9.28990320
H       -1.66906269      -4.51388061      -7.86924244
H       -2.09489738      -4.30876722      -5.47085456
H       -5.30070521      -5.77275017     -10.12752159
H       -5.69965065      -6.57161754     -12.39301700
H       -7.02291269      -7.93736085     -13.96563739
H       -8.81858211     -10.02789126     -10.64610255
H       -7.47215418      -8.67833858      -9.06719106
C       -8.77657116      -9.85968490     -13.32448242
C       -9.42139687     -10.52624918     -14.09540905
Br     -10.46402551     -11.60402723     -15.34193222
C       -0.88197212       0.88197212       0.88197212
C       -0.34357477       2.02421217       1.47496890
C       -1.14773631       2.82604425       2.28793895
C       -2.48987222       2.48796940       2.48549211
C       -3.02986915       1.34663857       1.88587267
C       -2.21850582       0.53608592       1.08785067
C       -3.35510499       3.32072814       3.34060068
N       -2.85986875       4.07584581       4.26832890
C       -3.76788335       4.81552710       5.05919029
C       -3.64932695       6.20836265       5.00318980
C       -4.47945004       7.02525788       5.76114157
C       -5.44487431       6.44859161       6.58431508
C       -5.59399051       5.05152482       6.69188648
C       -6.56590197       4.46865465       7.55052962
C       -6.62295211       3.07160452       7.67423447
C       -5.77296029       2.25102649       6.94467427
C       -4.83296734       2.82096931       6.09259959
C       -4.72349019       4.21908322       5.93176334
N       -7.40249443       5.30246125       8.33412180
C       -8.63505677       4.95945516       8.52593994
C       -9.53703613       5.74936660       9.38475719
C      -10.66026777       5.11919341       9.93030475
C      -11.51466475       5.83475674      10.77171483
C      -11.25021350       7.17697903      11.04719776
C      -10.13548853       7.81008680      10.49552669
C       -9.26984083       7.09157036       9.66735621
H        0.69632051       2.29722069       1.31502590
H       -0.72992586       3.71375027       2.75766719
H       -4.06748599       1.06818027       2.05090269
H       -2.63353291      -0.36110748       0.63541260
H       -4.44523399       3.24009693       3.16873067
H       -2.88946176       6.65360464       4.36607848
H       -4.36962809       8.10466983       5.72005928
H       -6.08284216       7.10781995       7.17466273
H       -7.31789870       2.60833685       8.36862314
H       -5.82536544       1.17141284       7.05540746
H       -4.15319805       2.15392892       5.56739219
H       -9.07308768       4.04837469       8.07951460
H      -10.86387789       4.07092977       9.72947753
H      -12.37645204       5.33847607      11.21098282
H       -9.92946359       8.85593101      10.70718131
H       -8.39529879       7.57955512       9.24282990
C      -12.13437158       7.91342928      11.91293762
C      -12.87485398       8.53020637      12.63799476
Br     -14.07215139       9.52748275      13.81035082
C        0.88197212      -0.88197212       0.88197212
C        1.25362725      -0.43793221       2.15119638
C        2.06672978      -1.24071368       2.95427604
C        2.48579478      -2.49013850       2.48740045
C        2.10773822      -2.93667318       1.21796899
C        1.30939450      -2.12381488       0.40923303
C        3.34498303      -3.35213500       3.31931577
N        4.09827428      -2.85712241       4.24864678
C        4.91136971      -3.75614751       4.97508352
C        4.67235871      -3.83740925       6.35111144
C        5.43311541      -4.67440646       7.15832762
C        6.44433409      -5.44539564       6.58805127
C        6.73875160      -5.38739110       5.21125911
C        7.78648093      -6.15963712       4.63896818
C        8.08412822      -6.00917307       3.27548979
C        7.34900372      -5.14871755       2.47093978
C        6.31366778      -4.40528954       3.02757891
C        5.97219227      -4.50882356       4.39332092
N        8.57129886      -7.00222820       5.46555043
C        8.97028635      -8.14393409       5.00623143
C        9.84332077      -9.03573511       5.79210404
C       10.60966886      -9.98796398       5.11213309
C       11.46801159     -10.82487774       5.82824699
C       11.54099342     -10.71584385       7.21755302
C       10.76943842      -9.77311858       7.89854503
C        9.92292492      -8.92314401       7.18269847
H        0.92083878       0.52778377       2.52287108
H        2.36437447      -0.89515571       3.94181313
H        2.44587179      -3.89878890       0.84190827
H        1.02950988      -2.46325306      -0.58492491
H        3.33526351      -4.43358093       3.08521715
H        3.88809989      -3.22809533       6.79294965
H        5.24770401      -4.71946099       8.22719219
H        7.03292211      -6.09201333       7.24038939
H        8.91796611      -6.54529025       2.83160233
H        7.59504317      -5.03879767       1.41834490
H        5.78433145      -3.70865852       2.38152919
H        8.70114126      -8.50336059       3.99647513
H       10.56635146     -10.06851933       4.02941440
H       12.07787808     -11.55121831       5.29681454
H       10.82336133      -9.68855351       8.98066107
H        9.32680139      -8.18135006       7.70953238
C       12.42482554     -11.58195516       7.95395779
C       13.16503495     -12.30732338       8.57069678
Br      14.36189094     -13.48018244       9.56791157
