178
Properties=species:S:1:pos:R:3 pbc="F F F"
O        3.44441133       3.70965649      -7.06667192
C        3.28929324       3.48082943      -5.87787959
N        2.36162720       2.56539875      -5.37820758
C        2.39930082       2.50847641      -3.98867429
C        1.61054090       1.70963955      -3.18338136
C        1.79957204       1.79957204      -1.79957204
C        2.76362416       2.67142396      -1.24446219
C        2.98996455       2.79978913       0.23368579
C        3.54094715       3.46762799      -2.10867701
C        3.35779623       3.38369113      -3.47813988
C        3.96457009       4.03822958      -4.64244458
N        4.93274094       4.97039171      -4.71036712
N        5.49151194       5.41068578      -3.44356570
C        6.45085919       6.35366198      -3.51918687
C        7.13287745       6.92737285      -2.29581631
O        7.00011763       6.69811780      -1.10402766
N        8.03457142       7.86061867      -2.81072005
C        7.97563734       7.91457721      -4.20004580
C        8.73411886       8.72788057      -5.02045107
C        8.52635122       8.62982365      -6.40085134
C        7.57386462       7.73513896      -6.93926834
C        7.32611323       7.59448305      -8.41284329
C        6.82770077       6.92632412      -6.06072923
C        7.02871127       7.01822434      -4.69383986
H        1.76703365       2.04396713      -5.98947623
H        0.87670635       1.04556199      -3.61818680
H        2.09598649       3.20065232       0.72186282
H        3.81963743       3.47933809       0.45735815
H        3.24405569       1.82855257       0.66992670
H        4.29249199       4.15845546      -1.73233645
H        8.62700338       8.39653725      -2.20977090
H        9.45974194       9.40968343      -4.59926431
H        6.51105553       6.89200761      -8.61953683
H        8.22160492       7.21448525      -8.91467042
H        7.03878058       8.55653028      -8.84865109
H        6.08608867       6.21898094      -6.42506243
C        9.32501837       9.47694060      -7.24827311
C        9.99390211      10.18640105      -7.95798884
Br      11.07543054      11.33353858      -9.10553915
O       -5.50753896      -6.26322744      -2.44997334
C       -4.76526067      -5.30309310      -2.57964849
N       -4.06606293      -4.71444860      -1.52472200
C       -3.29878451      -3.63838806      -1.95927895
C       -2.49350569      -2.83952809      -1.17052803
C       -1.79957204      -1.79957204      -1.79957204
C       -1.91361026      -1.57548339      -3.19041667
C       -1.19062525      -0.46703151      -3.89841113
C       -2.75045172      -2.41651991      -3.95028053
C       -3.44002399      -3.44611790      -3.33348535
C       -4.36990824      -4.48459361      -3.79074239
N       -4.84928705      -4.74286660      -5.02134612
N       -4.38044675      -3.87624819      -6.08906849
C       -4.87517383      -4.13280654      -7.31572766
C       -4.49694778      -3.32232728      -8.53679154
O       -3.74582120      -2.37134940      -8.68509249
N       -5.22630008      -3.90434610      -9.57526397
C       -5.99773049      -4.97030272      -9.12222714
C       -6.83176384      -5.76128582      -9.88940084
C       -7.52329261      -6.79147278      -9.24226081
C       -7.37882813      -7.01522147      -7.85422233
C       -8.09631050      -8.11290511      -7.12422395
C       -6.51484649      -6.18256418      -7.11734345
C       -5.82739674      -5.16166818      -7.75171056
H       -4.14616429      -5.06297059      -0.59134213
H       -2.41262131      -3.02005492      -0.10777891
H       -1.54118943       0.50580802      -3.53939458
H       -1.36187671      -0.49976842      -4.97997224
H       -0.11048661      -0.55038015      -3.74181480
H       -2.87710947      -2.28352934      -5.02264509
H       -5.16374993      -3.55846684     -10.51109475
H       -6.93636631      -5.58194332     -10.95038004
H       -7.89346028      -8.08118649      -6.04795320
H       -7.76896207      -9.09094328      -7.49085525
H       -9.17923650      -8.01509263      -7.24963282
H       -6.36572588      -6.31616322      -6.04824295
C       -8.38567909      -7.61408031     -10.05047267
C       -9.10792776      -8.30301412     -10.72735011
Br     -10.27574278      -9.41696182     -11.82180367
O       -5.35514771       6.38041054       2.48518149
C       -4.65641916       5.38686172       2.60472139
N       -3.93861546       4.81181540       1.55480267
C       -3.23169201       3.68971211       1.97504741
C       -2.42683033       2.89020229       1.18652919
C       -1.79957204       1.79957204       1.79957204
C       -1.97812051       1.52658421       3.17480558
C       -1.32768738       0.36333880       3.86504170
C       -2.81169946       2.37059411       3.93495859
C       -3.43549745       3.45023266       3.33389713
C       -4.34214384       4.50683493       3.79626547
N       -4.86033609       4.73637210       5.01679158
N       -4.46877640       3.81089209       6.06609493
C       -5.00220047       4.03948812       7.28201945
C       -4.70511584       3.16777282       8.48317795
O       -3.99794846       2.18228878       8.62202586
N       -5.45262084       3.73805518       9.51523413
C       -6.16333671       4.85095293       9.07597072
C       -6.99634395       5.64459148       9.84151506
C       -7.62085052       6.72607158       9.21010410
C       -7.41204946       6.99738599       7.83883648
C       -8.05651925       8.15051017       7.12641015
C       -6.55197402       6.15975944       7.10302066
C       -5.93066604       5.08821453       7.72189490
H       -3.96750990       5.19915168       0.63381543
H       -2.29628366       3.10833044       0.13584103
H       -1.70090561      -0.57996531       3.45383569
H       -1.54096186       0.36105251       4.93960299
H       -0.23970218       0.40911895       3.75386043
H       -2.98649505       2.20139919       4.99538965
H       -5.44124661       3.35396946      10.43809545
H       -7.15045454       5.42866954      10.88956559
H       -7.81186898       8.15233579       6.05839520
H       -7.70658593       9.09964499       7.54452967
H       -9.14659135       8.09160835       7.20576225
H       -6.35485853       6.32853087       6.04674265
C       -8.48259512       7.55083841      10.01679854
C       -9.20430623       8.24158063      10.69240513
Br     -10.37125205       9.35845237      11.78480385
O        4.53614277      -2.83094667       6.85365030
C        4.06901119      -2.85271162       5.72627946
N        3.27486014      -1.83502501       5.19534838
C        2.88003546      -2.12350877       3.89290729
C        2.08839008      -1.32941093       3.08576080
C        1.79957204      -1.79957204       1.79957204
C        2.30125133      -3.03838713       1.33987185
C        2.00751818      -3.57803267      -0.02948296
C        3.10180164      -3.81248408       2.20296644
C        3.39002598      -3.35309415       3.47650711
C        4.16319541      -3.87181341       4.61023543
N        4.85295927      -5.01990591       4.74063459
N        4.85791514      -5.90180944       3.58603884
C        5.53947564      -7.05519414       3.72903826
C        5.63983400      -8.08856129       2.62767132
O        5.19237028      -8.11776824       1.49212458
N        6.41078662      -9.11071842       3.18440511
C        6.78673233      -8.81278733       4.49074070
C        7.55198084      -9.60693786       5.32353180
C        7.82443701      -9.12415453       6.60843466
C        7.33345441      -7.87201752       7.04280000
C        7.60898554      -7.31534866       8.40910536
C        6.55992153      -7.09966541       6.15516719
C        6.28702597      -7.57144788       4.88230162
H        3.04728895      -1.02231170       5.73087636
H        1.71051999      -0.38313708       3.44679807
H        0.93655488      -3.77652711      -0.13830600
H        2.53698559      -4.51910452      -0.21447275
H        2.33146445      -2.87076617      -0.79954906
H        3.50823273      -4.77512392       1.89992725
H        6.63623560      -9.93359838       2.66347754
H        7.92246124     -10.56364199       4.98258644
H        7.09294498      -6.36190850       8.56774650
H        8.68075253      -7.13325878       8.53674929
H        7.25656435      -8.00368849       9.18370910
H        6.16268740      -6.12787291       6.43957174
C        8.62718135      -9.95575754       7.46729319
C        9.29947973     -10.65222505       8.18658721
Br      10.38652936     -11.77835412       9.34962480
C       -0.00445707       0.01189536      -1.78238275
H       -0.66409135       0.67374010      -2.43557963
H        0.65740317      -0.63156657      -2.45157240
C       -0.90989263      -0.90692880      -0.91072765
C        0.90977584       0.90977584      -0.90977584
C       -0.00465871       1.77757030       0.00794375
H       -0.66225468       2.44313916      -0.64384735
H        0.64322798       2.43503045       0.67728295
C       -1.78241447       0.00034974      -0.00472694
H       -2.45427497      -0.65498947       0.64260836
H       -2.43311707       0.67328779      -0.65473579
C       -0.91132561       0.90220522       0.91563759
C       -0.01476271      -0.02253852       1.78660255
H       -0.67934791      -0.69751639       2.42135241
H        0.63392994       0.61504881       2.47327442
C        0.01484550      -1.77751727      -0.01636693
H        0.67870853      -2.42144646      -0.68295456
H       -0.62264859      -2.45592969       0.64226336
C        1.78714474       0.01002794       0.00389507
H        2.44202412       0.67113390       0.66197326
H        2.45385902      -0.65136977      -0.64189061
C        0.91606151      -0.90478549       0.90901405
