114
Properties=species:S:1:pos:R:3 pbc="F F F"
C        1.78325804       1.78325804      -1.78325804
C        2.41002564       1.33022754      -2.91342988
C        3.15511445       2.37690276      -3.52633089
C        3.07745741       3.58648549      -2.84957740
C        3.68527615       4.83855122      -3.16275663
H        3.55193662       5.66876672      -2.47480795
N        4.39423397       4.94067443      -4.30436349
N        4.94420975       6.28693945      -4.41587759
C        5.55821587       6.42942766      -5.60718059
H        5.59358068       5.63952744      -6.35160528
C        6.17450390       7.68141772      -5.90552994
C        6.33556980       8.79642329      -5.09554280
C        6.99993026       9.87920599      -5.73724615
C        7.32358375       9.54811818      -7.02638986
S        6.85779797       7.98023549      -7.46211433
S        2.07850592       3.41649237      -1.45194441
H        2.35236985       0.32245010      -3.29634605
H        3.74364767       2.29378689      -4.43272378
H        5.96694606       8.78996508      -4.07527809
H        7.21097058      10.82664122      -5.26576026
C        7.99696608      10.44606144      -7.92852851
C        8.56092378      11.19808893      -8.68406962
Br       9.47279568      12.41405376      -9.90571571
C       -1.78325804      -1.78325804      -1.78325804
C       -2.03964747      -3.10105135      -1.51298425
C       -2.89386412      -3.65867176      -2.50581222
C       -3.25842641      -2.75790442      -3.49718946
C       -4.09108264      -2.95718835      -4.63831302
H       -4.21706517      -2.13787559      -5.34057053
N       -4.69302500      -4.15300573      -4.79324116
N       -5.47072746      -4.14916095      -6.02713838
C       -6.16443212      -5.30009127      -6.13030073
H       -6.13576562      -6.07695213      -5.37199565
C       -6.98420025      -5.49536427      -7.28188704
C       -7.11700291      -4.69969435      -8.41083862
C       -8.04132959      -5.20970733      -9.36534548
C       -8.58632364      -6.38672716      -8.92504099
S       -8.00436443      -6.88130128      -7.41448208
S       -2.53556062      -1.22041545      -3.19096662
H       -1.65448814      -3.64987008      -0.66680777
H       -3.25521530      -4.68014764      -2.53479540
H       -6.54652989      -3.78167989      -8.50397945
H       -8.27585643      -4.72632393     -10.30119169
C       -9.56193683      -7.13576554      -9.67385366
C      -10.37901288      -7.76308518     -10.30098427
Br     -11.70015574      -8.77740799     -11.31500142
C       -1.78325804       1.78325804       1.78325804
C       -2.77917451       2.58381571       1.29069285
C       -3.42946620       3.28136135       2.34752054
C       -2.91274719       2.99664767       3.60412544
C       -3.30595566       3.50145308       4.87917526
H       -2.73914612       3.20055113       5.75581404
N       -4.37021338       4.32581155       4.94324696
N       -4.58158577       4.73966567       6.32577534
C       -5.70972949       5.47189360       6.41320103
H       -6.34743267       5.67848848       5.55879225
C       -6.08739168       5.98331272       7.69074716
C       -5.40268658       5.92851715       8.89633217
C       -6.09422732       6.54595114       9.97620394
C       -7.29359095       7.05317053       9.55133031
S       -7.58737040       6.81067682       7.90210056
S       -1.61833669       1.86283095       3.46577505
H       -3.04398861       2.67879749       0.24837989
H       -4.25229037       3.97855512       2.23931284
H       -4.43357439       5.44443045       8.95418439
H       -5.71860232       6.59830054      10.98646919
C       -8.21942115       7.72989768      10.42223720
C       -8.99480395       8.29665667      11.15162172
Br     -10.24853234       9.21305801      12.33097479
C        1.78325804      -1.78325804       1.78325804
C        1.86838910      -1.64251180       3.14278217
C        2.76252652      -2.60514656       3.69067502
C        3.33029093      -3.44283630       2.74039307
C        4.25975632      -4.51074034       2.91608734
H        4.63768230      -5.02244590       2.03538309
N        4.62462875      -4.84497118       4.16967196
N        5.59185093      -5.93552928       4.11964658
C        5.87458444      -6.34952072       5.37071896
H        5.41002212      -5.92089598       6.25379530
C        6.81546470      -7.40950651       5.53648035
C        7.59454709      -8.04965846       4.58333034
C        8.42309099      -9.07660854       5.11668287
C        8.24330964      -9.18447219       6.47030997
S        7.12193247      -8.08189031       7.09632499
S        2.75039144      -3.02848400       1.16806726
H        1.33477367      -0.90861687       3.72777546
H        3.01289925      -2.71806588       4.73919321
H        7.53556329      -7.75594553       3.54068041
H        9.09342930      -9.68283821       4.52710454
C        8.94094764     -10.14352535       7.28708304
C        9.52521947     -10.94673237       7.97113049
Br      10.46993760     -12.24545019       9.07717736
C       -0.00445707       0.01189536      -1.78238275
H       -0.66409135       0.67374010      -2.43557963
H        0.65740317      -0.63156657      -2.45157240
C       -0.90989263      -0.90692880      -0.91072765
C        0.90977584       0.90977584      -0.90977584
C       -0.00465871       1.77757030       0.00794375
H       -0.66225468       2.44313916      -0.64384735
H        0.64322798       2.43503045       0.67728295
C       -1.78241447       0.00034974      -0.00472694
H       -2.45427497      -0.65498947       0.64260836
H       -2.43311707       0.67328779      -0.65473579
C       -0.91132561       0.90220522       0.91563759
C       -0.01476271      -0.02253852       1.78660255
H       -0.67934791      -0.69751639       2.42135241
H        0.63392994       0.61504881       2.47327442
C        0.01484550      -1.77751727      -0.01636693
H        0.67870853      -2.42144646      -0.68295456
H       -0.62264859      -2.45592969       0.64226336
C        1.78714474       0.01002794       0.00389507
H        2.44202412       0.67113390       0.66197326
H        2.45385902      -0.65136977      -0.64189061
C        0.91606151      -0.90478549       0.90901405
