93
Properties=species:S:1:pos:R:3 pbc="F F F"
C        0.00000000       0.00000000       0.00000000
C        0.87335401       0.87335401      -0.87335401
C        1.50012162       0.42032351      -2.00352586
C        2.24521043       1.46699873      -2.61642686
C        2.16755338       2.67658147      -1.93967338
C        2.77537213       3.92864719      -2.25285261
H        2.64203260       4.75886269      -1.56490393
N        3.48432995       4.03077041      -3.39445946
N        4.03430573       5.37703543      -3.50597357
C        4.64831184       5.51952364      -4.69727656
H        4.68367666       4.72962342      -5.44170125
C        5.26459988       6.77151369      -4.99562592
C        5.42566578       7.88651927      -4.18563877
C        6.09002624       8.96930196      -4.82734213
C        6.41367973       8.63821415      -6.11648584
S        5.94789394       7.07033146      -6.55221030
S        1.16860189       2.50658834      -0.54204039
H        1.44246583      -0.58745392      -2.38644202
H        2.83374364       1.38388286      -3.52281976
H        5.05704204       7.88006106      -3.16537407
H        6.30106655       9.91673719      -4.35585623
C        7.08706206       9.53615742      -7.01862448
C        7.65101975      10.28818490      -7.77416560
Br       8.56289165      11.50414974      -8.99581168
C       -0.87335401      -0.87335401      -0.87335401
C       -1.11921591      -2.19458421      -0.61017088
C       -1.97631737      -2.75130083      -1.60101783
C       -2.35342294      -1.84644314      -2.58394215
C       -3.19232259      -2.04371459      -3.72083475
H       -3.32839500      -1.22063167      -4.41677255
N       -3.78736026      -3.24246261      -3.87973696
N       -4.57326990      -3.23563473      -5.10841008
C       -5.26001805      -4.39045108      -5.21464292
H       -5.22116499      -5.17210268      -4.46173365
C       -6.08612637      -4.58355676      -6.36205636
C       -6.23170340      -3.78133867      -7.48478175
C       -7.15897153      -4.29117026      -8.43652853
C       -7.69322433      -5.47467955      -8.00047584
S       -7.09796117      -5.97534852      -6.49712602
S       -1.63871976      -0.30623414      -2.27227672
H       -0.72480902      -2.74641122       0.22976632
H       -2.33108902      -3.77494610      -1.63441115
H       -5.66794794      -2.85895001      -7.57557921
H       -7.40291682      -3.80317958      -9.36756358
C       -8.66882603      -6.22522810      -8.74778983
C       -9.48589246      -6.85381250      -9.37366529
Br     -10.80701977      -7.87018032     -10.38565299
C       -0.87335401       0.87335401       0.87335401
C       -1.87040565       1.67260385       0.38096149
C       -2.52038194       2.37050670       1.43774739
C       -2.00230989       2.08735112       2.69414722
C       -2.39484220       2.59293135       3.96909838
H       -1.82699903       2.29329760       4.84550259
N       -3.45976724       3.41641110       4.03338148
N       -3.67028933       3.83129421       5.41573119
C       -4.79899885       4.56260792       5.50350527
H       -5.43763322       4.76789196       4.64947614
C       -5.17598851       5.07481770       6.78093328
C       -4.49017733       5.02168270       7.98596379
C       -5.18131201       5.63945799       9.06590033
C       -6.38149345       6.14525064       8.64163563
S       -6.67650755       5.90104996       6.99287820
S       -0.70702553       0.95455015       2.55565495
H       -2.13621812       1.76643716      -0.66120135
H       -3.34391313       3.06688244       1.32965070
H       -3.52058971       4.53849806       8.04338939
H       -4.80484633       5.69302489      10.07578876
C       -7.30715298       6.82192972       9.51276126
C       -8.08239283       7.38864845      10.24232897
Br      -9.33589011       8.30498470      11.42197827
C        0.87335401      -0.87335401       0.87335401
C        0.47910903      -1.34955690       2.09530506
C        1.50673808      -2.14342781       2.67847013
C        2.64592411      -2.24607470       1.89180942
C        3.86113291      -2.94829344       2.14744557
H        4.67180993      -2.86499697       1.42899232
N        3.94952455      -3.69242134       3.26761393
N        5.27343637      -4.29964936       3.34422898
C        5.32994551      -5.13386986       4.40129667
H        4.48367975      -5.31360120       5.05772037
C        6.55406502      -5.82154147       4.65613300
C        7.78152260      -5.69458905       4.02171216
C        8.78767677      -6.55521476       4.54377880
C        8.28602002      -7.31573886       5.56662084
S        6.65704418      -7.00642825       5.90696328
S        2.43461792      -1.35293654       0.42967617
H       -0.47620029      -1.15751684       2.56013737
H        1.45870860      -2.64209582       3.63964185
H        7.90613903      -4.99024969       3.20608844
H        9.80096871      -6.59757920       4.17511206
C        9.06759316      -8.28717482       6.28707599
C        9.72216065      -9.10075243       6.89045717
Br      10.78054094     -10.41623863       7.86607351
