173
Properties=species:S:1:pos:R:3 pbc="F F F"
C        0.00000000       0.00000000       0.00000000
C        0.88147991       0.88147991      -0.88147991
C        0.30050342       1.67938396      -1.86445266
C        1.11058755       2.49508726      -2.65992862
C        2.49650012       2.51305769      -2.48370372
C        3.06351576       1.71904938      -1.47967380
C        2.26054440       0.89556217      -0.68531850
N        3.25734120       3.41713268      -3.23669187
C        4.30519291       2.97776503      -3.86442743
C        5.24007037       3.86211155      -4.62068515
C        5.28458042       5.19991745      -4.41079928
N        4.41913973       5.80847698      -3.48802221
C        4.87575352       6.29326741      -2.22896845
C        3.95971037       6.34911113      -1.16432629
C        4.34757874       6.80591289       0.09804720
C        5.65253604       7.24346301       0.29782078
C        6.56231859       7.24653068      -0.75594941
C        6.16812945       6.78653019      -2.01677864
N        6.15898403       6.00089454      -5.11267579
C        7.00706885       5.46657796      -5.92844302
C        7.94102999       6.35785441      -6.67273249
C        8.86171572       5.82716141      -7.48681352
C        8.95137231       4.40016980      -7.64897272
C        8.09264444       3.60027734      -7.00595671
N        7.11289518       4.10814640      -6.15832568
C        6.23876995       3.24551850      -5.52380797
O        6.25625250       2.01947254      -5.65876027
H       -0.77611729       1.68642180      -2.01164776
H        0.65625923       3.13522454      -3.41223401
H        4.13358866       1.75379274      -1.29440041
H        2.71874472       0.28730785       0.08975023
H        4.57172807       1.90468752      -3.86194694
H        3.61939627       5.18777560      -3.30158842
H        2.93584924       6.00978872      -1.30708875
H        3.62561602       6.81160813       0.90965466
H        7.57774935       7.60483621      -0.61332375
H        6.89011178       6.81611066      -2.82707877
H        7.83547086       7.42549419      -6.52297138
H        9.55010305       6.45849883      -8.03927618
H        9.71803694       3.99553636      -8.30273573
H        8.13727617       2.51989538      -7.12032048
C        6.06303300       7.70047230       1.60021656
C        6.40682420       8.08321759       2.69097301
Br       6.96270551       8.70208434       4.45463396
C       -0.88147991      -0.88147991      -0.88147991
C       -2.00002148      -1.50781068      -0.33650789
C       -2.81175330      -2.30294087      -1.15090925
C       -2.50896455      -2.48108808      -2.50320891
C       -1.39159092      -1.83052538      -3.04012264
C       -0.57135420      -1.03979319      -2.23027768
N       -3.40350277      -3.20602003      -3.30164296
C       -2.93696031      -4.15154953      -4.05887554
C       -3.77904063      -4.92728063      -5.01654582
C       -4.98457773      -4.47375451      -5.43696491
N       -5.50090157      -3.26101568      -4.95372166
C       -5.55260992      -2.08693088      -5.75844858
C       -5.51976629      -0.83695028      -5.11643121
C       -5.55779296       0.35200931      -5.84966079
C       -5.66260203       0.29993312      -7.23550936
C       -5.74975659      -0.92646464      -7.88857745
C       -5.70956796      -2.11300726      -7.14886306
N       -5.74602994      -5.19933375      -6.32719068
C       -5.27656015      -6.29158835      -6.83394133
C       -6.12237596      -7.05437502      -7.79486591
C       -5.64148331      -8.16257572      -8.37163162
C       -4.31279399      -8.62237324      -8.06534760
C       -3.56406027      -7.95627508      -7.17854314
N       -4.02663410      -6.80597415      -6.54675902
C       -3.22367511      -6.15652229      -5.62789903
O       -2.09282549      -6.53245082      -5.30920901
H       -2.25771730      -1.37500093       0.71076596
H       -3.69765572      -2.77400033      -0.73206174
H       -1.16519318      -1.91731491      -4.09927371
H        0.29084436      -0.54180871      -2.66533799
H       -1.86692683      -4.42954648      -4.04188922
H       -5.02503327      -3.00661706      -4.07710997
H       -5.43778398      -0.78206051      -4.03288221
H       -5.50252422       1.30352176      -5.32856704
H       -5.85143003      -0.97558995      -8.96888934
H       -5.79791745      -3.05627454      -7.67910923
H       -7.11696337      -6.67374938      -7.99322367
H       -6.24163906      -8.73355368      -9.07268531
H       -3.94159146      -9.51491641      -8.55980115
H       -2.56060935      -8.29057783      -6.92630485
C       -5.68625933       1.52115102      -7.99818043
C       -5.70607233       2.54392101      -8.63691746
Br      -5.73810826       4.19765358      -9.66970121
C       -0.88147991       0.88147991       0.88147991
C       -1.04223791       2.23010730       0.57199483
C       -1.86130288       3.03001057       1.37428998
C       -2.51437360       2.49251486       2.48637307
C       -2.35702675       1.13139421       2.77381797
C       -1.53396484       0.32713482       1.98032540
N       -3.40062729       3.30732796       3.20321050
C       -3.28875635       3.36335225       4.49527677
C       -4.23089956       4.12319179       5.36877572
C       -5.45989812       4.49722608       4.93817295
N       -5.87839427       4.20739443       3.62985021
C       -6.84644048       3.20046275       3.35108615
C       -6.80842761       2.56866530       2.09605487
C       -7.72420061       1.56653422       1.76470961
C       -8.71047932       1.20966089       2.67803806
C       -8.79958964       1.85886231       3.90634673
C       -7.87882447       2.86010409       4.23250971
N       -6.32014693       5.19212465       5.76028279
C       -5.98852996       5.42633145       6.98722843
C       -6.93964313       6.17907640       7.85289736
C       -6.64240128       6.39275273       9.14053664
C       -5.40713657       5.90176228       9.69161598
C       -4.53775178       5.25349270       8.90763400
N       -4.79985141       5.01805891       7.56145694
C       -3.86757235       4.35487298       6.78565110
O       -2.78224990       3.94617283       7.20606259
H       -0.55004593       2.66540963      -0.29350329
H       -2.00557668       4.07741028       1.12073081
H       -2.89318811       0.68291716       3.60567654
H       -1.42521642      -0.72742399       2.21850991
H       -2.47960390       2.83058744       5.02817119
H       -5.05846650       4.01101034       3.03928346
H       -6.04198911       2.83833000       1.37240759
H       -7.65348755       1.07597488       0.79810707
H       -9.57874083       1.59975734       4.61741115
H       -7.98025456       3.36448908       5.18855757
H       -7.85559891       6.53289395       7.39544357
H       -7.32032381       6.94005653       9.78749772
H       -5.19853394       6.07474544      10.74302966
H       -3.59505857       4.88113252       9.30130093
C       -9.64738961       0.16677236       2.34912678
C      -10.43205198      -0.70664677       2.07366358
Br     -11.70078466      -2.11889165       1.62826288
C        0.88147991      -0.88147991       0.88147991
C        0.90858888      -0.67668492       2.25906624
C        1.70683162      -1.49529056       3.06348125
C        2.48225187      -2.51153470       2.49947496
C        2.43039130      -2.71634998       1.11549765
C        1.64013362      -1.89716117       0.30413028
N        3.19002525      -3.36817950       3.35296101
C        4.44651855      -3.58837736       3.11248947
C        5.27632266      -4.54987389       3.89667053
C        4.71644294      -5.52053699       4.65831722
N        3.32091253      -5.63317929       4.76154709
C        2.59723483      -6.67957805       4.12117649
C        1.25606070      -6.44534032       3.77174676
C        0.49471399      -7.42771810       3.13301235
C        1.06163993      -8.66953437       2.86700397
C        2.37169887      -8.94144838       3.25165143
C        3.12894479      -7.95319009       3.88930340
N        5.49755734      -6.40463446       5.37036256
C        6.78403529      -6.36409241       5.25396213
C        7.60276695      -7.33345856       6.03539137
C        8.93412137      -7.34538423       5.89618505
C        9.57842347      -6.42415947       4.99793189
C        8.84731747      -5.53186081       4.31970020
N        7.46224131      -5.47595109       4.44117486
C        6.74781358      -4.52949774       3.73078511
O        7.25966024      -3.69881316       2.97601191
H        0.30625215       0.10253452       2.71823463
H        1.71146126      -1.35111759       4.14113893
H        2.98856395      -3.53096664       0.66225121
H        1.61186806      -2.07230177      -0.76786749
H        4.97565344      -3.07296324       2.28974585
H        2.88010462      -4.74564000       4.48301567
H        0.80038961      -5.47826241       3.97407468
H       -0.53079710      -7.20902889       2.84933772
H        2.81565564      -9.91507761       3.06517606
H        4.14182681      -8.19527853       4.19619587
H        7.07627272      -8.00590611       6.70175759
H        9.54874516      -8.04192854       6.45720436
H       10.65817022      -6.46638206       4.89175676
H        9.31425852      -4.82133167       3.64190184
C        0.28763191      -9.68082128       2.19483556
C       -0.36059980     -10.52777407       1.63189452
Br      -1.40873566     -11.89722509       0.72166646
