165
Properties=species:S:1:pos:R:3 pbc="F F F"
C        0.00000000       0.00000000       0.00000000
C        0.88147991       0.88147991      -0.88147991
C        0.30050342       1.67938396      -1.86445266
C        1.11058755       2.49508726      -2.65992862
C        2.49650012       2.51305769      -2.48370372
C        3.06351576       1.71904938      -1.47967380
C        2.26054440       0.89556217      -0.68531850
N        3.25734120       3.41713268      -3.23669187
C        4.30519291       2.97776503      -3.86442743
C        5.24007037       3.86211155      -4.62068515
C        5.28458042       5.19991745      -4.41079928
N        4.41913973       5.80847698      -3.48802221
C        4.87575352       6.29326741      -2.22896845
C        3.95971037       6.34911113      -1.16432629
C        4.34757874       6.80591289       0.09804720
C        5.65253604       7.24346301       0.29782078
Br       6.19119562       7.84315670       2.00684188
C        6.56231859       7.24653068      -0.75594941
C        6.16812945       6.78653019      -2.01677864
N        6.15898403       6.00089454      -5.11267579
C        7.00706885       5.46657796      -5.92844302
C        7.94102999       6.35785441      -6.67273249
C        8.86171572       5.82716141      -7.48681352
C        8.95137231       4.40016980      -7.64897272
C        8.09264444       3.60027734      -7.00595671
N        7.11289518       4.10814640      -6.15832568
C        6.23876995       3.24551850      -5.52380797
O        6.25625250       2.01947254      -5.65876027
H       -0.77611729       1.68642180      -2.01164776
H        0.65625923       3.13522454      -3.41223401
H        4.13358866       1.75379274      -1.29440041
H        2.71874472       0.28730785       0.08975023
H        4.57172807       1.90468752      -3.86194694
H        3.61939627       5.18777560      -3.30158842
H        2.93584924       6.00978872      -1.30708875
H        3.62561602       6.81160813       0.90965466
H        7.57774935       7.60483621      -0.61332375
H        6.89011178       6.81611066      -2.82707877
H        7.83547086       7.42549419      -6.52297138
H        9.55010305       6.45849883      -8.03927618
H        9.71803694       3.99553636      -8.30273573
H        8.13727617       2.51989538      -7.12032048
C       -0.88147991      -0.88147991      -0.88147991
C       -1.56757103      -1.95621671      -0.32055231
C       -2.38422869      -2.75216874      -1.12920600
C       -2.51383706      -2.48495931      -2.49446517
C       -1.83203167      -1.39048679      -3.03972047
C       -1.00806529      -0.59461098      -2.23874880
N       -3.41774268      -3.24830853      -3.24511455
C       -3.01384634      -3.77090504      -4.36263400
C       -3.91044256      -4.52439034      -5.28803418
C       -5.25905014      -4.40895032      -5.22729669
N       -5.86428888      -3.59268335      -4.25866668
C       -6.46424003      -2.34401042      -4.58973893
C       -6.52533986      -1.35013528      -3.59767264
C       -7.09270718      -0.10076154      -3.86197572
C       -7.63560125       0.15420248      -5.11677950
Br      -8.38604856       1.84788540      -5.48934729
C       -7.63340551      -0.83352007      -6.09787310
C       -7.06250327      -2.08155132      -5.82738368
N       -6.07197892      -5.10637467      -6.09420078
C       -5.54656231      -5.82266966      -7.03285786
C       -6.45079300      -6.56480598      -7.95601791
C       -5.93432799      -7.27480513      -8.96655753
C       -4.50984551      -7.32730678      -9.16336254
C       -3.69517024      -6.68748116      -8.31622709
N       -4.18692034      -5.94641962      -7.24602730
C       -3.30813416      -5.31156436      -6.38839791
O       -2.08024614      -5.35632395      -6.49791522
H       -1.48709072      -2.17555467       0.74069312
H       -2.93794991      -3.57747948      -0.68828839
H       -1.95617689      -1.13670706      -4.08889784
H       -0.48788066       0.25131471      -2.67973639
H       -1.96536735      -3.67318809      -4.69980709
H       -5.20149992      -3.41616814      -3.49109224
H       -6.10428531      -1.53655443      -2.61188697
H       -7.10088530       0.65796738      -3.08465159
H       -8.07273402      -0.64917172      -7.07400358
H       -7.08951845      -2.84152028      -6.60226249
H       -7.51569332      -6.49981233      -7.76843077
H       -6.57507760      -7.82381775      -9.64898270
H       -4.11850009      -7.89720395     -10.00060500
H       -2.61557752      -6.72042592      -8.44148859
C       -0.88147991       0.88147991       0.88147991
C       -2.24383380       0.98895432       0.61155193
C       -3.04927504       1.78652197       1.42980642
C       -2.50092990       2.48170805       2.51062359
C       -1.13340639       2.34921589       2.77961666
C       -0.32061176       1.55928611       1.96152720
N       -3.36166763       3.18969131       3.35980682
C       -3.07192141       4.42003402       3.65542995
C       -3.86295282       5.24109645       4.61881780
C       -4.69959436       4.67434393       5.52135886
N       -4.87623252       3.28209531       5.55731107
C       -4.32619939       2.47655050       6.59523949
C       -4.03091850       1.13224600       6.30998328
C       -3.48107549       0.29232501       7.28204395
C       -3.25166838       0.78380469       8.56270519
Br      -2.48914290      -0.33901378       9.87738132
C       -3.58552039       2.09703989       8.88223840
C       -4.13418240       2.93310110       7.90415478
N       -5.41707997       5.44691426       6.40856013
C       -5.23629856       6.72620055       6.43959072
C       -6.02552634       7.53569448       7.41039606
C       -5.82249624       8.85602569       7.49716872
C       -4.84801022       9.49759648       6.65490814
C       -4.16140104       8.77703850       5.76043894
N       -4.34710779       7.40435275       5.62790672
C       -3.62483908       6.70142150       4.68183585
O       -2.80455145       7.21380133       3.91613253
H       -2.69130533       0.44952391      -0.21887696
H       -4.11664349       1.85328104       1.23379325
H       -0.69580166       2.84317299       3.64280716
H        0.73837673       1.46773280       2.18694627
H       -2.19911890       4.93084156       3.20840207
H       -4.57444438       2.87132549       4.66299043
H       -4.20544438       0.73511784       5.31216448
H       -3.23682142      -0.73449708       7.02524516
H       -3.42771262       2.48297510       9.88522159
H       -4.40340782       3.94737474       8.18251865
H       -6.75024595       7.01188083       8.02180963
H       -6.38783982       9.46392133       8.19611691
H       -4.69172142      10.56716330       6.75742431
H       -3.42622755       9.24271577       5.10854871
C        0.88147991      -0.88147991       0.88147991
C        0.46424534      -1.21110442       2.16899029
C        1.26852242      -2.02975112       2.96732989
C        2.48872277      -2.51473624       2.48980253
C        2.88567763      -2.18926749       1.18729382
C        2.09010899      -1.36537450       0.38594158
N        3.21401950      -3.40955023       3.28759603
C        4.47613679      -3.18234258       3.48890601
C        5.36758179      -4.11190057       4.24338471
C        5.03453290      -5.40851635       4.45224790
N        3.81055469      -5.91634341       3.98874081
C        3.73124515      -6.79568262       2.87106160
C        2.54461111      -6.81072788       2.11780880
C        2.40732021      -7.64379761       1.00432661
C        3.44853659      -8.49637928       0.65326239
Br       3.27951033      -9.61110248      -0.86310236
C        4.61241685      -8.53627171       1.41611012
C        4.74413894      -7.69865729       2.52864204
N        5.87267841      -6.25506668       5.14480927
C        7.03045486      -5.83513025       5.53650472
C        7.91575887      -6.77356702       6.28229100
C        9.13916347      -6.37976649       6.65676068
C        9.60189931      -5.05329849       6.34531703
C        8.79612919      -4.19897522       5.70377407
N        7.51315386      -4.56124954       5.30496386
C        6.71030630      -3.64232610       4.65546403
O        7.05158803      -2.48528410       4.39761319
H       -0.48532268      -0.85134533       2.55592963
H        0.93344587      -2.30622888       3.96404304
H        3.80779289      -2.59436133       0.77962758
H        2.41436142      -1.12477260      -0.62283167
H        4.96943069      -2.27506980       3.09386204
H        3.15866036      -5.13997534       3.81012460
H        1.72244646      -6.14869923       2.38158101
H        1.48943331      -7.61394919       0.42418700
H        5.42245568      -9.21318241       1.16027122
H        5.65348345      -7.76136175       3.11845601
H        7.52527187      -7.76069942       6.49796513
H        9.79880031      -7.04694680       7.20213095
H       10.60457442      -4.76535377       6.64638085
H        9.12242440      -3.18947074       5.46559689
