185
Properties=species:S:1:pos:R:3 pbc="F F F"
C        0.00000000       0.00000000       0.00000000
C        0.88150136       0.88150136      -0.88150136
C        0.30621399       1.64008245      -1.89780699
C        1.11631844       2.45388992      -2.69464460
C        2.49772919       2.51258775      -2.48778680
C        3.05739058       1.75790539      -1.44938680
C        2.25465384       0.93488680      -0.65355979
N        3.24318837       3.41647093      -3.25815627
C        4.38336981       3.04295288      -3.75230587
C        5.28920439       3.95001581      -4.52022506
C        5.12375512       5.29419748      -4.53184052
N        4.05355688       5.88784106      -3.84333854
C        4.23821160       6.67082614      -2.66766782
C        3.17998349       6.74433751      -1.74665281
C        3.29958515       7.48371119      -0.56707801
C        4.47299504       8.18626509      -0.31492693
C        5.51393975       8.17138501      -1.23884174
C        5.38820014       7.42692960      -2.41747049
N        5.97903908       6.10771767      -5.24175397
C        7.00762841       5.60919021      -5.84678804
C        7.93386591       6.51918439      -6.60860552
C        7.57150887       7.96901812      -6.69146466
C        9.03073634       5.99767624      -7.18071389
C        9.31695624       4.59238909      -7.08912851
C        8.47061856       3.78048728      -6.44748891
N        7.31851726       4.25981545      -5.83484825
C        6.47549469       3.37184636      -5.19105671
O        6.66356177       2.15409606      -5.13740790
H       -0.76617846       1.61691132      -2.07153249
H        0.66491176       3.06148488      -3.47521282
H        4.12070492       1.82107536      -1.23534250
H        2.70794485       0.35677884       0.14727781
H        4.75784307       2.01134847      -3.62011596
H        3.34406880       5.17564414      -3.62404818
H        2.25676503       6.19867844      -1.93016573
H        2.47620002       7.49810408       0.14130445
H        6.42659599       8.73203007      -1.05825656
H        6.20782669       7.44500825      -3.12898818
H        8.31662932       8.54153384      -7.25457606
H        7.50358679       8.40991527      -5.69190467
H        6.60861736       8.09492258      -7.19767219
H        9.72555367       6.61813778      -7.73888542
H       10.21792104       4.20977016      -7.55825676
H        8.66315734       2.71278761      -6.37794341
C        4.61001715       8.93590254       0.90690310
C        4.72477316       9.56372391       1.93018576
Br       4.91032393      10.57885796       3.58474726
C       -0.88150136      -0.88150136      -0.88150136
C       -2.17517704      -0.47303822      -1.19588817
C       -2.97400469      -1.27847248      -2.01237578
C       -2.49278551      -2.49155552      -2.51376271
C       -1.18312890      -2.87819488      -2.20335899
C       -0.38093823      -2.08195159      -1.38021062
N       -3.30742045      -3.20919016      -3.40120496
C       -3.40677257      -4.49679638      -3.27505961
C       -4.18456245      -5.36232802      -4.21255478
C       -4.62214636      -4.91423251      -5.41341426
N       -4.39025726      -3.58666135      -5.80781787
C       -3.48209967      -3.24407550      -6.85053039
C       -2.88011604      -1.97525111      -6.81560665
C       -1.97005962      -1.58061675      -7.79969798
C       -1.67958147      -2.44443314      -8.85017245
C       -2.30510744      -3.68503460      -8.93402446
C       -3.21416623      -4.07480428      -7.94362972
N       -5.32996596      -5.73656264      -6.26198213
C       -5.52096042      -6.98012137      -5.96252486
C       -6.28940572      -7.86222876      -6.91002134
C       -6.86755534      -7.22811036      -8.13632594
C       -6.42796676      -9.16488624      -6.61627347
C       -5.87147001      -9.71573002      -5.41127381
C       -5.22570454      -8.92118798      -4.55170223
N       -5.04938535      -7.56467821      -4.79911740
C       -4.37880367      -6.78942961      -3.87016449
O       -3.93377918      -7.21840623      -2.80288032
H       -2.56748405       0.46982232      -0.82460361
H       -3.97696892      -0.95032844      -2.27431210
H       -0.76690324      -3.79205002      -2.61816952
H        0.63275517      -2.39944192      -1.15075914
H       -2.90140893      -5.03533355      -2.45256502
H       -4.13636413      -3.02005676      -4.98734023
H       -3.09687049      -1.28972716      -5.99901155
H       -1.49691591      -0.60523434      -7.73084940
H       -2.09776572      -4.35825877      -9.76085814
H       -3.70048570      -5.04041235      -8.04092507
H       -7.39312272      -7.95859392      -8.76102258
H       -6.07995394      -6.77718436      -8.74826844
H       -7.58844883      -6.45071613      -7.86204717
H       -6.97398246      -9.83649390      -7.27210052
H       -5.99781750     -10.77537318      -5.21275727
H       -4.80844402      -9.31651149      -3.62893286
C       -0.72930928      -2.05148143      -9.85822588
C        0.06654368      -1.72238437     -10.70247063
Br       1.35337061      -1.19026225     -12.06754297
C       -0.88150136       0.88150136       0.88150136
C       -0.81142807       2.26744799       0.76522737
C       -1.62864292       3.06948794       1.56672209
C       -2.51228795       2.49843875       2.48737704
C       -2.58373710       1.10283719       2.57810849
C       -1.76327773       0.29404337       1.78577934
N       -3.37072168       3.35146630       3.19562759
C       -3.56314769       3.15218854       4.46329233
C       -4.51443206       3.95336117       5.29165203
C       -5.44498717       4.76687066       4.73793529
N       -5.52254550       4.91812731       3.34406367
C       -6.60328078       4.39807590       2.57534887
C       -6.36526168       4.07716863       1.22854349
C       -7.37758687       3.55075697       0.42203051
C       -8.65141993       3.37208072       0.95068642
C       -8.92363001       3.73354915       2.26698735
C       -7.90429802       4.25837906       3.06992315
N       -6.31528694       5.48777046       5.52545334
C       -6.31406866       5.33934352       6.81019448
C       -7.28096422       6.13090856       7.64978304
C       -8.15918128       7.12143647       6.95137389
C       -7.31097953       5.92245002       8.97569691
C       -6.42705462       4.97472561       9.59669360
C       -5.54095595       4.30399480       8.85364399
N       -5.46093497       4.47574407       7.47650191
C       -4.51927862       3.75978691       6.75933224
O       -3.71150648       2.97753013       7.26602912
H       -0.13831863       2.73330978       0.05063694
H       -1.58855468       4.15099820       1.46205658
H       -3.29533927       0.63146191       3.25032161
H       -1.83348496      -0.78707832       1.87103924
H       -3.02709330       2.35380907       5.00840513
H       -4.65277940       4.58156918       2.90941255
H       -5.37325488       4.21035241       0.80200191
H       -7.15703279       3.28343718      -0.60747032
H       -9.92023611       3.61438606       2.68226046
H       -8.14654342       4.54745455       4.08782514
H       -8.83119788       7.63106129       7.65048006
H       -8.78060878       6.62624064       6.19855731
H       -7.55383637       7.88924376       6.45813200
H       -7.99310097       6.47133258       9.61814332
H       -6.48691044       4.82845463      10.67058289
H       -4.85543166       3.59201252       9.30644418
C       -9.69495886       2.81350572       0.13055200
C      -10.56892272       2.34569916      -0.55631057
Br     -11.98204836       1.58929553      -1.66690927
C        0.88150136      -0.88150136       0.88150136
C        0.64302979      -0.94923608       2.25183755
C        1.44592449      -1.76637843       3.05255003
C        2.48873715      -2.51311099       2.49625561
C        2.70280471      -2.44800336       1.11387470
C        1.90927414      -1.62624913       0.30757716
N        3.19861461      -3.38368890       3.33551206
C        4.49086046      -3.44958105       3.23818705
C        5.33281473      -4.39740569       4.02922483
C        4.80053163      -5.44213154       4.70712996
N        3.41193789      -5.65032354       4.72247505
C        2.79239761      -6.73949899       4.04480895
C        1.46122088      -6.58718641       3.62256652
C        0.79842061      -7.61108217       2.94087157
C        1.45515359      -8.81404303       2.70499045
C        2.75579448      -9.00657813       3.16179390
C        3.41453415      -7.97588587       3.84218021
N        5.60127111      -6.30565807       5.42158155
C        6.88836917      -6.18265659       5.39258088
C        7.74370925      -7.14414178       6.17380479
C        7.04814866      -8.16539867       7.01844431
C        9.07958459      -7.04314305       6.08639882
C        9.69420885      -6.02667582       5.27758917
C        8.93191483      -5.14834494       4.61833498
N        7.54370161      -5.20066386       4.66881549
C        6.80578245      -4.26087065       3.97174466
O        7.30007504      -3.34480205       3.31018863
H       -0.16710800      -0.38437646       2.70499688
H        1.24735417      -1.83488621       4.11936908
H        3.47490036      -3.05411530       0.64810713
H        2.09132780      -1.58929449      -0.76317642
H        5.04961788      -2.79839354       2.54129608
H        2.92900974      -4.79297479       4.42177660
H        0.93555600      -5.65107324       3.79897996
H       -0.22083172      -7.45431851       2.59951285
H        3.26952166      -9.94949278       2.99786818
H        4.42244199      -8.15714890       4.20223223
H        7.76071252      -8.82019887       7.53182783
H        6.40004499      -8.79979816       6.40556357
H        6.43844923      -7.67691497       7.78584793
H        9.73355574      -7.71634927       6.63267186
H       10.77753620      -5.98221828       5.22619347
H        9.37805992      -4.36457056       4.01125788
C        0.78441639      -9.86709728       1.98750292
C        0.22267398     -10.74903021       1.38660712
Br      -0.68561598     -12.17504117       0.41500942
