157
Properties=species:S:1:pos:R:3 pbc="F F F"
C        0.00000000       0.00000000       0.00000000
C        7.31402445       9.25999183      -9.42990094
O        8.03834837       8.23128791      -8.76662558
C        7.43689098       7.64311993      -7.68629900
C        6.39426487       8.22455996      -6.95790057
C        5.85019242       7.56718377      -5.84848703
C        6.34195732       6.32063332      -5.45337641
C        5.79983967       5.66730590      -4.26708284
C        4.80604620       4.77155843      -4.22719793
C        3.94989796       4.14057700      -5.24174817
N        3.09678803       3.30334358      -4.71362748
N        3.31745399       3.32655131      -3.33628332
C        2.50952447       2.51134140      -2.50354743
C        2.65085571       2.50968959      -1.10770120
C        1.84217671       1.70141991      -0.29957211
C        0.88147424       0.88147424      -0.88147424
C        0.72206248       0.86324043      -2.26272876
C        1.53112898       1.67436346      -3.06627342
C        4.34236256       4.19517223      -2.93915910
O        4.80666602       4.46976307      -1.84710730
C        4.03359153       4.39717182      -6.70900734
C        7.38901231       5.73459398      -6.16812462
C        7.93486927       6.39733277      -7.27363687
H        7.26999895      10.16746843      -8.81964966
H        6.31042304       8.92166068      -9.70909605
H        7.85159962       9.50588870     -10.35051898
H        5.99670696       9.20162297      -7.21378616
H        5.05056933       8.04824088      -5.28819727
H        6.27745445       5.97323130      -3.33553128
H        3.38681309       3.13543463      -0.61052042
H        1.97522429       1.72511300       0.77879068
H       -0.02502833       0.22522251      -2.72811808
H        1.38782724       1.64213621      -4.14403247
H        3.19842489       3.90813088      -7.21866068
H        4.96862505       3.98969671      -7.10232619
H        3.97676887       5.46847536      -6.91300134
H        7.79191208       4.77422533      -5.85779419
C        9.01844485       5.75316682      -7.96970740
C        9.92593940       5.21367783      -8.55266647
Br      11.39328133       4.34136976      -9.49526198
C       -7.49602317      -9.84724276      -8.66065130
O       -7.91735743      -8.48918089      -8.62972353
C       -7.44942865      -7.71504915      -7.60183211
C       -6.94795924      -8.22757880      -6.40118736
C       -6.51185296      -7.36574278      -5.38826748
C       -6.57202255      -5.98093968      -5.56300482
C       -6.15981736      -5.09254874      -4.48186232
C       -4.94798594      -4.55268037      -4.30413625
C       -3.67691187      -4.61576296      -5.03954830
N       -2.74276856      -3.90182438      -4.46916614
N       -3.31590814      -3.33273854      -3.33164193
C       -2.51182693      -2.50882721      -2.50375917
C       -3.01029731      -1.93193781      -1.32601138
C       -2.20162848      -1.12383204      -0.51770822
C       -0.88147424      -0.88147424      -0.88147424
C       -0.36329266      -1.44003262      -2.04470638
C       -1.17463183      -2.24878874      -2.84834529
C       -4.66195577      -3.67201924      -3.14271888
O       -5.47054570      -3.36945178      -2.28353891
C       -3.45617934      -5.38494172      -6.29864963
C       -7.07929213      -5.45790433      -6.75453445
C       -7.52008550      -6.32249496      -7.76325845
H       -7.97025151     -10.42540089      -7.86146464
H       -6.40462573      -9.92511254      -8.61144149
H       -7.81856008     -10.27475591      -9.61469131
H       -6.90453591      -9.29553144      -6.21204875
H       -6.14123394      -7.78920353      -4.45657002
H       -6.94918987      -4.87588979      -3.76113736
H       -4.03448413      -2.09569681      -1.00258720
H       -2.61740944      -0.69380601       0.38966885
H        0.66692683      -1.25617870      -2.33906039
H       -0.74667127      -2.67379578      -3.75352888
H       -2.39368412      -5.37330721      -6.55822512
H       -4.01948395      -4.92584789      -7.11531612
H       -3.76385225      -6.42476160      -6.16963172
H       -7.14846118      -4.38229499      -6.89317545
C       -8.04222924      -5.73114447      -8.96794535
C       -8.47952463      -5.23588844      -9.97687062
Br      -9.18659428      -4.43510133     -11.60821746
C       -7.31482257       9.43855649       9.25053816
O       -7.99499220       8.29643276       8.74483690
C       -7.43486680       7.66434699       7.66709611
C       -6.51451435       8.26199267       6.80021839
C       -6.00743495       7.55376466       5.70466361
C       -6.41444484       6.23949550       5.46202671
C       -5.91611603       5.52808692       4.29002546
C       -4.85138221       4.71886192       4.23455843
C       -3.85912306       4.25730458       5.21579549
N       -2.98024064       3.44968408       4.68383437
N       -3.31670899       3.32820387       3.33537576
C       -2.51019142       2.51078049       2.50344140
C       -2.76721327       2.36958594       1.13144729
C       -1.95852566       1.56136341       0.32327966
C       -0.88147424       0.88147424       0.88147424
C       -0.60591444       1.00311632       2.23900090
C       -1.41563168       1.81371824       3.04241593
C       -4.44644488       4.06792022       2.96232878
O       -5.02376990       4.20157458       1.89819190
C       -3.84273190       4.63915600       6.65788280
C       -7.33991466       5.63566607       6.31615018
C       -7.84958226       6.34870881       7.40754784
H       -7.40529085      10.28687512       8.56495108
H       -6.26462841       9.21245851       9.46409285
H       -7.79362159       9.72175376      10.19263195
H       -6.18798965       9.28822544       6.93590101
H       -5.30494080       8.04682731       5.03523937
H       -6.49607106       5.70640397       3.38374200
H       -3.59638957       2.88335380       0.65302477
H       -2.18305045       1.47506073      -0.73656457
H        0.23276896       0.47519423       2.68588698
H       -1.18020168       1.89235646       4.10143779
H       -2.92657587       4.27048845       7.12815214
H       -4.70031059       4.19248593       7.16785143
H       -3.86728022       5.72560916       6.76535619
H       -7.67782842       4.62056966       6.12553353
C       -8.80753682       5.68243340       8.25134885
C       -9.60982375       5.12442774       8.95803220
Br     -10.90705388       4.22217978      10.10067940
C        9.96453855      -7.67142828       8.36795039
O        8.74402217      -8.29844920       7.99379049
C        7.73928768      -7.48567515       7.54134707
C        7.66878088      -6.11232817       7.79561635
C        6.59271626      -5.35586264       7.31728432
C        5.57371883      -5.96306107       6.57918715
C        4.43317803      -5.17378888       6.12726151
C        4.29666795      -4.56514283       4.94299178
C        5.13597914      -4.45484749       3.74139649
N        4.56734447      -3.73799286       2.80842175
N        3.33747934      -3.32299758       3.31981170
C        2.50520636      -2.50641227       2.51279468
C        1.27157225      -2.02278113       2.97389312
C        0.46354032      -1.21422274       2.16540567
C        0.88147424      -0.88147424       0.88147424
C        2.09922570      -1.34905550       0.39975047
C        2.90446672      -2.15513815       1.21216099
C        3.08001069      -3.77666124       4.62002195
O        2.13271958      -3.62112605       5.36969076
C        6.47639118      -5.08834197       3.57503754
C        5.62929994      -7.33559855       6.32683243
C        6.70384283      -8.09035629       6.81163979
H        9.84915065      -7.10852209       9.29944431
H       10.34492757      -7.03242063       7.56383157
H       10.70291166      -8.45882775       8.54626789
H        8.42500427      -5.60274232       8.38436951
H        6.55244923      -4.29178124       7.54277701
H        3.63273208      -5.09016145       6.86332350
H        0.90646509      -2.25609709       3.97020596
H       -0.48554571      -0.85379704       2.55329528
H        2.43506023      -1.09598245      -0.60273043
H        3.85228696      -2.50899682       0.81271214
H        6.93990666      -4.73639001       2.64891978
H        6.36699317      -6.17458463       3.51907017
H        7.13117261      -4.82022517       4.40684779
H        4.83226953      -7.82135686       5.77030523
C        6.70778478      -9.50270531       6.53082898
C        6.71108616     -10.68554761       6.29564993
Br       6.71642421     -12.59810357       5.91538528
