166
Properties=species:S:1:pos:R:3 pbc="F F F"
C        1.79072883       1.79072883      -1.79072883
C        1.21028403       2.67664244      -2.68915719
C        2.02258100       3.48580734      -3.49498731
C        3.42772109       3.43236098      -3.41822923
C        3.98142135       2.52271031      -2.49900275
C        3.17360965       1.70858518      -1.69314782
N        4.25699678       4.27965162      -4.25431623
C        5.58030596       3.92468747      -4.51831012
O        6.08459002       2.81320097      -4.36198797
N        6.37241113       4.89232558      -5.07467005
C        5.90938754       5.75987745      -6.01345282
O        6.62572392       6.18474724      -6.91072587
C        4.47328793       6.06464139      -5.88513840
C        3.91064679       6.82618497      -6.84226916
C        2.48710327       7.15174233      -6.95340259
C        1.97096591       8.30239417      -6.34883724
C        0.60991071       8.60292011      -6.45238043
C       -0.23516423       7.75310379      -7.16576684
O       -1.56669495       8.04704619      -7.26561111
C        0.27608559       6.60524292      -7.77616411
C        1.63601276       6.30374107      -7.67105588
C        3.73453319       5.48597015      -4.73161477
O        2.79941266       6.10397914      -4.22625231
H        0.12873313       2.75065337      -2.77744434
H        1.51474709       4.14450830      -4.19647860
H        5.05568635       2.43556938      -2.35597925
H        3.64070406       1.02137973      -0.99252169
H        7.31568032       4.57618007      -5.26158061
H        4.51258282       7.21800974      -7.66247097
H        2.61968650       8.96393061      -5.77891884
H        0.23007259       9.49677579      -5.96660404
H       -1.75564464       8.85333115      -6.75890652
H        2.02998471       5.41106414      -8.15027089
C       -0.56870173       5.70763878      -8.52063788
C       -1.27621111       4.95589531      -9.14413466
Br      -2.42019394       3.74038970     -10.15227621
C       -1.79072883      -1.79072883      -1.79072883
C       -3.13565317      -1.95491379      -1.48551671
C       -3.94218659      -2.76294184      -2.29824722
C       -3.42674046      -3.41860320      -3.43296765
C       -2.06047450      -3.23155970      -3.71110020
C       -1.24852765      -2.42728172      -2.89953327
N       -4.27400179      -4.24783134      -4.26913151
C       -3.70976326      -5.23164535      -5.08189494
O       -2.57610227      -5.69995685      -4.98371985
N       -4.52633085      -5.77867649      -6.03439943
C       -5.84027332      -6.03980967      -5.80263482
O       -6.41092464      -6.99264000      -6.31763239
C       -6.46641028      -5.12505717      -4.83160027
C       -7.73443759      -5.38405883      -4.46060450
C       -8.49304211      -4.66302570      -3.43618037
C       -9.28231394      -3.56063993      -3.77924345
C       -9.99756866      -2.87237815      -2.79526445
C       -9.92648491      -3.29060145      -1.46662004
O      -10.62544682      -2.61611326      -0.50440228
C       -9.14389268      -4.39440800      -1.11919194
C       -8.42741498      -5.08114095      -2.10225378
C       -5.65025811      -4.00104920      -4.30081079
O       -6.18714767      -2.93433274      -4.00816371
H       -3.57358992      -1.46374126      -0.61949966
H       -4.98243293      -2.87406961      -1.99923145
H       -1.58683749      -3.67883175      -4.58156573
H       -0.19821303      -2.30532258      -3.15106986
H       -4.07239430      -6.49841428      -6.58263243
H       -8.27519027      -6.22759304      -4.89028023
H       -9.33318676      -3.21871198      -4.81063721
H      -10.59612407      -2.01348940      -3.08383894
H      -11.08371359      -1.86259137      -0.91028807
H       -7.82217510      -5.94140741      -1.82773724
C       -9.04954365      -4.85270061       0.24266934
C       -8.97052635      -5.23652067       1.38322816
Br      -8.84276204      -5.85712524       3.22741531
C       -1.79072883       1.79072883       1.79072883
C       -1.50147143       3.14166837       1.93294386
C       -2.31418101       3.94813969       2.74105494
C       -3.43307446       3.42654849       3.41868835
C       -3.69527344       2.05432304       3.25353793
C       -2.88360473       1.24247423       2.44926369
N       -4.26947948       4.27371461       4.24777054
C       -5.06146511       3.71202082       5.24981763
O       -4.94185796       2.58615895       5.73176206
N       -6.01752030       4.52316243       5.79872403
C       -5.79999503       5.84345462       6.03926817
O       -6.30993356       6.41998119       6.99128228
C       -4.84968253       6.47006331       5.10332189
C       -4.49236201       7.74626653       5.34047238
C       -3.48788067       8.50863118       4.59573633
C       -3.85611292       9.27839430       3.48769011
C       -2.89105215       9.99732094       2.77683817
C       -1.55614216       9.94949365       3.17807060
O       -0.61243707      10.65202689       2.48149840
C       -1.18361662       9.18648592       4.28739008
C       -2.14776422       8.46632813       4.99671736
C       -4.32292534       5.64598821       3.98320455
O       -4.05169526       6.17232512       2.90562373
H       -0.64800994       3.58441113       1.42440977
H       -2.02772721       4.99366021       2.83434656
H       -4.55328502       1.57523729       3.71871266
H       -3.12259613       0.18737136       2.34463797
H       -6.55000783       4.07170988       6.53172330
H       -4.91804167       8.29256232       6.18245954
H       -4.89254167       9.31098231       3.15901196
H       -3.19901241      10.58039734       1.91404266
H       -1.03440450      11.09470003       1.72748850
H       -1.85375128       7.87640052       5.86116794
C        0.18534849       9.11637666       4.72854676
C        1.33185678       9.05766016       5.09801547
Br       3.18566370       8.96272054       5.69541513
C        1.79072883      -1.79072883       1.79072883
C        3.17374855      -1.70972954       1.69260557
C        3.97965147      -2.51874918       2.50497500
C        3.42450857      -3.41983172       3.43397101
C        2.02070896      -3.47705756       3.50536789
C        1.20997988      -2.67265790       2.69270487
N        4.27035260      -4.24765400       4.27295803
C        3.76763739      -5.42251680       4.83314937
O        2.75284490      -6.02394990       4.48298416
N        4.52024474      -5.99857927       5.82058275
C        5.87869421      -6.02876346       5.77526014
O        6.52060481      -6.96316204       6.23743018
C        6.47570113      -4.88628213       5.06108447
C        7.80872149      -4.89780717       4.87257226
C        8.57469474      -3.91675214       4.10080130
C        9.11354316      -2.78593220       4.72272197
C        9.83691209      -1.84970991       3.97858925
C       10.02520216      -2.04762672       2.61087752
O       10.73187020      -1.13076394       1.88332822
C        9.49372674      -3.17816272       1.98560317
C        8.76904077      -4.11291425       2.72885470
C        5.56805607      -3.81700542       4.56705661
O        5.95661625      -2.65135628       4.52167158
H        3.64243905      -1.02471558       0.98967621
H        5.05565440      -2.43018108       2.36989852
H        1.50926804      -4.12502580       4.21294113
H        0.12908454      -2.74420969       2.78131124
H        4.11888024      -6.85622842       6.17833235
H        8.41542345      -5.71563161       5.26200848
H        8.96031035      -2.61604920       5.78617640
H       10.23773535      -0.97451912       4.48119795
H       10.99662767      -0.39773831       2.46222705
H        8.35992997      -4.99272801       2.23866176
C        9.67066387      -3.41297350       0.57593755
C        9.81884872      -3.60962753      -0.60465740
Br      10.05845109      -3.92760047      -2.51357959
C       -0.00445707       0.01189536      -1.78238275
H       -0.66409135       0.67374010      -2.43557963
H        0.65740317      -0.63156657      -2.45157240
C       -0.90989263      -0.90692880      -0.91072765
C        0.90977584       0.90977584      -0.90977584
C       -0.00465871       1.77757030       0.00794375
H       -0.66225468       2.44313916      -0.64384735
H        0.64322798       2.43503045       0.67728295
C       -1.78241447       0.00034974      -0.00472694
H       -2.45427497      -0.65498947       0.64260836
H       -2.43311707       0.67328779      -0.65473579
C       -0.91132561       0.90220522       0.91563759
C       -0.01476271      -0.02253852       1.78660255
H       -0.67934791      -0.69751639       2.42135241
H        0.63392994       0.61504881       2.47327442
C        0.01484550      -1.77751727      -0.01636693
H        0.67870853      -2.42144646      -0.68295456
H       -0.62264859      -2.45592969       0.64226336
C        1.78714474       0.01002794       0.00389507
H        2.44202412       0.67113390       0.66197326
H        2.45385902      -0.65136977      -0.64189061
C        0.91606151      -0.90478549       0.90901405
