158
Properties=species:S:1:pos:R:3 pbc="F F F"
C        1.79072883       1.79072883      -1.79072883
C        1.21028403       2.67664244      -2.68915719
C        2.02258100       3.48580734      -3.49498731
C        3.42772109       3.43236098      -3.41822923
C        3.98142135       2.52271031      -2.49900275
C        3.17360965       1.70858518      -1.69314782
N        4.25699678       4.27965162      -4.25431623
C        5.58030596       3.92468747      -4.51831012
O        6.08459002       2.81320097      -4.36198797
N        6.37241113       4.89232558      -5.07467005
C        5.90938754       5.75987745      -6.01345282
O        6.62572392       6.18474724      -6.91072587
C        4.47328793       6.06464139      -5.88513840
C        3.91064679       6.82618497      -6.84226916
C        2.48710327       7.15174233      -6.95340259
C        1.97096591       8.30239417      -6.34883724
C        0.60991071       8.60292011      -6.45238043
C       -0.23516423       7.75310379      -7.16576684
O       -1.56669495       8.04704619      -7.26561111
C        0.27608559       6.60524292      -7.77616411
Br      -0.83638815       5.42321637      -8.75653810
C        1.63601276       6.30374107      -7.67105588
C        3.73453319       5.48597015      -4.73161477
O        2.79941266       6.10397914      -4.22625231
H        0.12873313       2.75065337      -2.77744434
H        1.51474709       4.14450830      -4.19647860
H        5.05568635       2.43556938      -2.35597925
H        3.64070406       1.02137973      -0.99252169
H        7.31568032       4.57618007      -5.26158061
H        4.51258282       7.21800974      -7.66247097
H        2.61968650       8.96393061      -5.77891884
H        0.23007259       9.49677579      -5.96660404
H       -1.75564464       8.85333115      -6.75890652
H        2.02998471       5.41106414      -8.15027089
C       -1.79072883      -1.79072883      -1.79072883
C       -3.07032583      -2.13281240      -1.37294544
C       -3.87739794      -2.94020529      -2.18577242
C       -3.42824368      -3.41807292      -3.43199469
C       -2.12681957      -3.05372041      -3.82259443
C       -1.31414958      -2.24931861      -3.01187445
N       -4.27607284      -4.24861052      -4.26628128
C       -3.71018984      -5.07766818      -5.23544554
O       -2.53159699      -5.42470020      -5.30348177
N       -4.56874357      -5.61415312      -6.15651008
C       -5.81618332      -6.04133052      -5.82520398
O       -6.34251858      -6.99543354      -6.38324491
C       -6.41881222      -5.30322551      -4.70103000
C       -7.60560990      -5.73709321      -4.23639782
C       -8.31396466      -5.21056865      -3.06771488
C       -9.24248365      -4.17390170      -3.20581197
C       -9.90919307      -3.67093364      -2.08508454
C       -9.64969706      -4.20917141      -0.82483793
O      -10.30133706      -3.71584261       0.27121731
C       -8.72715656      -5.24842021      -0.68191585
Br      -8.34501951      -6.01034803       1.01200122
C       -8.05928863      -5.74983235      -1.80168873
C       -5.66505570      -4.15418896      -4.13287345
O       -6.26989945      -3.18821798      -3.67152668
H       -3.45624886      -1.78217313      -0.41840885
H       -4.86171244      -3.19538995      -1.79863160
H       -1.71047090      -3.35654450      -4.78021958
H       -0.31569053      -1.98704447      -3.35187047
H       -4.10891835      -6.22073396      -6.82378870
H       -8.10381814      -6.58832035      -4.70092505
H       -9.44138808      -3.73852483      -4.18262303
H      -10.61878481      -2.85930509      -2.21536251
H      -10.87471776      -2.98112242      -0.00075284
H       -7.34451017      -6.56067836      -1.68613121
C       -1.79072883       1.79072883       1.79072883
C       -1.27614800       2.95619964       2.34373603
C       -2.08892831       3.76398948       3.15045786
C       -3.43060278       3.42991293       3.41779559
C       -3.91802461       2.24196354       2.84314627
C       -3.10835907       1.42859231       2.03839126
N       -4.26283011       4.27796719       4.25016734
C       -5.39129448       3.75197164       4.88003744
O       -5.64021974       2.56030885       5.05925037
N       -6.26915021       4.65600332       5.41425324
C       -5.85459683       5.79130636       6.03681462
O       -6.46825800       6.27228742       6.98065161
C       -4.58118976       6.32262148       5.51925648
C       -4.04326290       7.37995515       6.15588288
C       -2.74154816       7.98503785       5.86566218
C       -2.63406545       9.03734424       4.95078763
C       -1.38747693       9.60498736       4.67274696
C       -0.24729850       9.12189010       5.31451779
O        0.97198968       9.67681664       5.04113540
C       -0.34967728       8.07453829       6.23327704
Br       1.17394819       7.38791623       7.12939829
C       -1.59525599       7.50580941       6.50974431
C       -3.95832344       5.63896218       4.35483248
O       -3.30737785       6.28577411       3.53649215
H       -0.24566845       3.25155328       2.15960911
H       -1.62729739       4.65280868       3.57562792
H       -4.94879497       1.92259303       2.97584698
H       -3.52427945       0.52048340       1.60984262
H       -7.05892645       4.22058368       5.87393088
H       -4.55461402       7.83288457       7.00556494
H       -3.51568421       9.41170090       4.43515084
H       -1.32715358      10.41466917       3.95162966
H        0.86695182      10.36207124       4.36147361
H       -1.67057050       6.69304228       7.22770695
C        1.79072883      -1.79072883       1.79072883
C        3.08043974      -2.10968960       1.38595432
C        3.88743834      -2.91716141       2.19877590
C        3.42805330      -3.41812629       3.43213170
C        2.11658173      -3.07682315       3.80972953
C        1.30399883      -2.27244658       2.99889724
N        4.27582848      -4.24848123       4.26665492
C        3.70830780      -5.09834860       5.21664716
O        2.53377596      -5.46220741       5.26379559
N        4.56159467      -5.63575138       6.14206071
C        5.81915140      -6.04141248       5.82215393
O        6.35092863      -6.99587116       6.37439724
C        6.42675826      -5.27985578       4.71645369
C        7.62558117      -5.69119705       4.26232270
C        8.34240087      -5.13913911       3.11070821
C        9.25464896      -4.09198865       3.27555971
C        9.92950508      -3.56470489       2.17100129
C        9.69450780      -4.08905878       0.90013982
O       10.35409556      -3.57195515      -0.18008836
C        8.78833786      -5.13864345       0.73051131
Br       8.43966420      -5.88235405      -0.97865192
C        8.11231500      -5.66437417       1.83412055
C        5.66506348      -4.13344012       4.15361451
O        6.26278294      -3.15312732       3.71373385
H        3.47440230      -1.74078902       0.44163952
H        4.88031404      -3.15365796       1.82176199
H        1.69150110      -3.39837177       4.75736211
H        0.29752221      -2.02840630       3.32867695
H        4.10114585      -6.25760385       6.79469130
H        8.12909072      -6.54189630       4.72207652
H        9.43431526      -3.66740668       4.26081400
H       10.62606120      -2.74540783       2.32198339
H       10.91360311      -2.83334114       0.10964877
H        7.41036309      -6.48316109       1.69779556
C       -0.00445707       0.01189536      -1.78238275
H       -0.66409135       0.67374010      -2.43557963
H        0.65740317      -0.63156657      -2.45157240
C       -0.90989263      -0.90692880      -0.91072765
C        0.90977584       0.90977584      -0.90977584
C       -0.00465871       1.77757030       0.00794375
H       -0.66225468       2.44313916      -0.64384735
H        0.64322798       2.43503045       0.67728295
C       -1.78241447       0.00034974      -0.00472694
H       -2.45427497      -0.65498947       0.64260836
H       -2.43311707       0.67328779      -0.65473579
C       -0.91132561       0.90220522       0.91563759
C       -0.01476271      -0.02253852       1.78660255
H       -0.67934791      -0.69751639       2.42135241
H        0.63392994       0.61504881       2.47327442
C        0.01484550      -1.77751727      -0.01636693
H        0.67870853      -2.42144646      -0.68295456
H       -0.62264859      -2.45592969       0.64226336
C        1.78714474       0.01002794       0.00389507
H        2.44202412       0.67113390       0.66197326
H        2.45385902      -0.65136977      -0.64189061
C        0.91606151      -0.90478549       0.90901405
