145
Properties=species:S:1:pos:R:3 pbc="F F F"
C        0.00000000       0.00000000       0.00000000
C        0.88082480       0.88082480      -0.88082480
C        0.30038001       1.76673842      -1.77925317
C        1.11267698       2.57590332      -2.58508328
C        2.51781706       2.52245696      -2.50832521
C        3.07151732       1.61280629      -1.58909872
C        2.26370562       0.79868115      -0.78324379
N        3.34709275       3.36974760      -3.34441221
C        4.67040194       3.01478345      -3.60840610
O        5.17468599       1.90329695      -3.45208395
N        5.46250711       3.98242156      -4.16476603
C        4.99948352       4.84997343      -5.10354880
O        5.71581989       5.27484322      -6.00082184
C        3.56338391       5.15473737      -4.97523438
C        3.00074277       5.91628094      -5.93236514
C        1.57719924       6.24183830      -6.04349857
C        1.06106189       7.39249014      -5.43893322
C       -0.29999331       7.69301608      -5.54247641
C       -1.14506825       6.84319976      -6.25586281
O       -2.47659897       7.13714217      -6.35570708
C       -0.63381843       5.69533889      -6.86626009
C        0.72610874       5.39383704      -6.76115186
C        2.82462917       4.57606612      -3.82171074
O        1.88950864       5.19407511      -3.31634829
H       -0.78117089       1.84074935      -1.86754031
H        0.60484307       3.23460427      -3.28657457
H        4.14578232       1.52566536      -1.44607522
H        2.73080003       0.11147570      -0.08261766
H        6.40577630       3.66627605      -4.35167659
H        3.60267880       6.30810572      -6.75256695
H        1.70978248       8.05402658      -4.86901481
H       -0.67983144       8.58687177      -5.05670001
H       -2.66554866       7.94342712      -5.84900249
H        1.12008069       4.50116012      -7.24036686
C       -1.47860576       4.79773475      -7.61073385
C       -2.18611514       4.04599128      -8.23423063
Br      -3.33009797       2.83048568      -9.24237219
C       -0.88082480      -0.88082480      -0.88082480
C       -2.20724250      -0.53492173      -1.10420736
C       -3.01267489      -1.34523136      -1.91575733
C       -2.51189180      -2.51219176      -2.52451566
C       -1.16509898      -2.83314032      -2.27518303
C       -0.35610183      -2.02805896      -1.46146978
N       -3.35500992      -3.33924583      -3.36699681
C       -3.03029848      -4.67866276      -3.58463024
O       -2.25111071      -5.35987574      -2.91908044
N       -3.70233164      -5.31337620      -4.59398685
C       -5.02012516      -5.09007900      -4.84280158
O       -5.75819024      -5.97317289      -5.26012183
C       -5.46984944      -3.73116198      -4.49234423
C       -6.78470344      -3.46312511      -4.60156030
C       -7.44215584      -2.21629557      -4.20408470
C       -7.60031421      -1.17171561      -5.12045543
C       -8.22179237       0.01845199      -4.73215880
C       -8.68975124       0.16189152      -3.42613460
O       -9.29649312       1.32687548      -3.04663265
C       -8.53920144      -0.88036598      -2.50821313
C       -7.91629481      -2.06916460      -2.89563824
C       -4.45300535      -2.75910677      -4.01029392
O       -4.57840131      -1.56169966      -4.25983108
H       -2.63211701       0.35981558      -0.65481735
H       -4.04951944      -1.03873600      -2.03776649
H       -0.69026993      -3.70098490      -2.72626807
H        0.68087520      -2.30892121      -1.29684739
H       -3.44144205      -6.28606582      -4.69622106
H       -7.47642414      -4.22473754      -4.96218978
H       -7.22640043      -1.26912172      -6.13730172
H       -8.32484834       0.81934303      -5.45823503
H       -9.28657157       1.95040567      -3.79071505
H       -7.80408731      -2.87868921      -2.17883115
C       -9.01183823      -0.76514890      -1.15287572
C       -9.40767154      -0.66865459      -0.01778064
Br     -10.04770053      -0.51263146       1.81757209
C       -0.88082480       0.88082480       0.88082480
C       -0.68107332       2.25492779       0.91037048
C       -1.49364182       3.06109718       1.71892457
C       -2.52366828       2.51563628       2.50929466
C       -2.69650080       1.12051723       2.45640431
C       -1.88432065       0.30920393       1.65210599
N       -3.36134494       3.36222025       3.33768737
C       -4.04129824       2.82234380       4.42994944
O       -3.80839005       1.74490317       4.97677367
N       -5.01431950       3.60475757       4.99061762
C       -4.87710518       4.95063760       5.12526296
O       -5.36206036       5.55880087       6.07062372
C       -4.03983838       5.57056214       4.08295513
C       -3.76055450       6.88174655       4.20708780
C       -2.86631115       7.65423823       3.34198673
C       -3.36308220       8.31529747       2.21410558
C       -2.50264179       9.04435663       1.38850076
C       -1.14376666       9.11575196       1.69447571
O       -0.30242955       9.82809099       0.88572974
C       -0.64312595       8.46179647       2.82285813
C       -1.50267142       7.73146351       3.64696272
C       -3.53157961       4.70504220       2.98578422
O       -3.37236643       5.16917258       1.85839303
H        0.10192000       2.71626131       0.31277746
H       -1.27789555       4.12755069       1.72057568
H       -3.48431687       0.61957705       3.01362898
H       -2.05290812      -0.76440530       1.63639058
H       -5.46215116       3.17262113       5.78895665
H       -4.16689401       7.45755137       5.03890608
H       -4.41894559       8.25410220       1.95977608
H       -2.90940733       9.54143806       0.51289495
H       -0.80515992      10.18563759       0.13608344
H       -1.10917798       7.22674397       4.52568572
C        0.75393962       8.51620101       3.16760146
C        1.92398202       8.56176480       3.45632400
Br       3.81584164       8.63543761       3.92316392
C        0.88082480      -0.88082480       0.88082480
C        1.86228122      -1.67795187       0.30613850
C        2.67101364      -2.48401318       1.11863676
C        2.52178081      -2.50806813       2.51875029
C        1.51698444      -1.68992212       3.06651577
C        0.70302269      -0.88446607       2.25814181
N        3.36946107      -3.34296145       3.34883004
C        2.94887162      -3.72006056       4.62465930
O        1.79900894      -3.67102254       5.06003541
N        3.89944656      -4.26614251       5.44410563
C        4.85782818      -5.11273623       4.98244133
O        5.29649603      -6.02801822       5.66697071
C        5.24509282      -4.86616263       3.58210020
C        6.10563974      -5.73098872       3.01276039
C        6.52932674      -5.72231505       1.61089432
C        7.66640895      -5.01052572       1.21555058
C        8.06061786      -5.00022654      -0.12534522
C        7.31842730      -5.70694011      -1.07137308
O        7.70392045      -5.69542219      -2.38309235
C        6.18484181      -6.42401759      -0.68107885
C        5.78962613      -6.43274385       0.65872765
C        4.63706683      -3.70416023       2.88117896
O        5.27779352      -3.09659199       2.02554653
H        2.01188930      -1.68638890      -0.77115943
H        3.40798901      -3.10476903       0.61326388
H        1.35099630      -1.62733857       4.13918803
H       -0.05963936      -0.26359909       2.72093366
H        3.53671780      -4.53775707       6.34925406
H        6.51347566      -6.56377941       3.58609639
H        8.24374663      -4.44523704       1.94384020
H        8.94145524      -4.43268566      -0.41040056
H        8.48380912      -5.12588099      -2.48280915
H        4.90859661      -6.99465250       0.95835855
C        5.39720530      -7.16478468      -1.63212713
C        4.73755972      -7.78517713      -2.42863007
Br       3.67096861      -8.78829924      -3.71650795
