162
Properties=species:S:1:pos:R:3 pbc="F F F"
C        1.79238451       1.79238451      -1.79238451
C        1.72415723       3.17742174      -1.66765634
C        2.54664882       3.97895685      -2.45569039
C        3.42697345       3.39302693      -3.36869108
C        3.48674962       1.99758822      -3.51723436
C        2.66684517       1.19951952      -2.70545099
N        4.41438252       1.40706463      -4.45180926
C        3.98653544       0.45259801      -5.38526740
S        2.41429243      -0.01306356      -5.76542700
N        4.96119820      -0.15318981      -6.13589998
C        6.29273776       0.12734166      -6.17772489
O        7.04804159      -0.48208203      -6.92585823
C        6.72247301       1.21944287      -5.28528391
C        8.00753657       1.61372980      -5.41422033
C        8.67917130       2.70843877      -4.69824939
C        8.60633872       3.99964485      -5.23945022
C        9.24570034       5.06818426      -4.60307548
Br       9.11358409       6.79158043      -5.38457588
C        9.96354532       4.85404848      -3.42482460
O       10.59026137       5.89822045      -2.80294067
C       10.04776233       3.57404440      -2.88042386
C        9.40736289       2.51071124      -3.51644563
O        9.54392703       1.28660754      -2.92098142
C        5.75644231       1.81082539      -4.31695478
O        6.16181352       2.55438546      -3.42419079
H        1.04564828       3.63952370      -0.95533515
H        2.50942679       5.06136410      -2.35629384
H        4.06126553       4.04359784      -3.96784600
H        2.72527786       0.11533459      -2.75189677
H        4.65262481      -0.85521812      -6.79826262
H        8.66203934       1.13193429      -6.14214223
H        8.05458143       4.17619370      -6.15966275
H       11.00289505       5.57876383      -1.98366970
H       10.60068157       3.38404545      -1.96587637
H        8.94239722       0.65941865      -3.35202760
C       -1.79238451      -1.79238451      -1.79238451
C       -2.79266370      -1.21020482      -2.56636680
C       -3.57975038      -2.01339650      -3.38814917
C       -3.36822449      -3.39384283      -3.42662415
C       -2.37630972      -3.99263852      -2.63262396
C       -1.57754523      -3.17180466      -1.82246578
N       -2.15819816      -5.41773225      -2.69732600
C       -2.10330634      -6.19151990      -1.52957461
S       -2.47592795      -5.73903946       0.04831153
N       -1.75410634      -7.50892774      -1.68087429
C       -1.55856032      -8.20453215      -2.83471184
O       -1.27630873      -9.39686617      -2.81864289
C       -1.74032249      -7.41825399      -4.06862331
C       -1.69537569      -8.11659759      -5.22351341
C       -1.90073129      -7.60025117      -6.58487699
C       -3.20897796      -7.55018108      -7.08627474
C       -3.45010405      -7.08429989      -8.38255614
Br      -5.24109479      -7.04247516      -9.00617044
C       -2.38722890      -6.66841513      -9.18677437
O       -2.62221687      -6.21423875     -10.45496687
C       -1.08196029      -6.71888426      -8.70138604
C       -0.84491319      -7.18222187      -7.40738470
O        0.46394347      -7.20557464      -7.00988482
C       -1.95239741      -5.94555150      -3.98627358
O       -1.87792990      -5.25821719      -5.00424267
H       -2.95875547      -0.13629117      -2.54546048
H       -4.35516071      -1.56609386      -4.00583016
H       -3.99492420      -3.99624820      -4.08153697
H       -0.76389288      -3.59160955      -1.23700679
H       -1.69802215      -8.06319410      -0.83445305
H       -1.53099775      -9.19510064      -5.21001747
H       -4.04325321      -7.87700209      -6.47018258
H       -1.78205116      -5.93131922     -10.85195820
H       -0.24033438      -6.40137274      -9.30889626
H        0.49951188      -7.39432008      -6.05903528
C       -1.79238451       1.79238451       1.79238451
C       -1.56617283       3.16545530       1.83760718
C       -2.38683456       3.97083770       2.62362380
C       -3.42372212       3.39951592       3.36545342
C       -3.64544381       2.01270605       3.34342233
C       -2.82421031       1.21352303       2.53408233
N       -4.73204973       1.44010922       4.10109746
C       -4.51761346       0.35028849       4.95649889
S       -3.05747430      -0.33237213       5.44155372
N       -5.63083862      -0.21274418       5.52581393
C       -6.92166561       0.21506352       5.46107519
O       -7.81831428      -0.37684796       6.05035147
C       -7.12840493       1.43677471       4.66202015
C       -8.37162117       1.96245208       4.70141345
C       -8.83756951       3.19652721       4.05176274
C       -8.69414309       4.40700538       4.74428531
C       -9.14021148       5.60318121       4.17356739
Br      -8.92119013       7.20860073       5.15994953
C       -9.73432023       5.59803343       2.91006473
O      -10.17212475       6.76715869       2.35213905
C       -9.88745150       4.40027892       2.21450017
C       -9.43977454       3.20916129       2.78558393
O       -9.63283887       2.07803703       2.04064009
C       -5.99985219       2.00926444       3.87510585
O       -6.21880086       2.88391224       3.03767666
H       -0.76489482       3.61706790       1.25854441
H       -2.22572611       5.04596819       2.65539043
H       -4.05222593       4.05354751       3.96693592
H       -3.00028705       0.14462356       2.44759860
H       -5.47633773      -1.01109306       6.13042463
H       -9.15305659       1.48696663       5.29609265
H       -8.23794474       4.42125457       5.73123857
H      -10.51755330       6.58503776       1.46273752
H      -10.34685858       4.37228999       1.23145482
H       -9.15424287       1.34358758       2.45601303
C        1.79238451      -1.79238451       1.79238451
C        2.84570221      -1.22167503       2.50185807
C        3.63357708      -2.02347439       3.32424458
C        3.36960982      -3.39150168       3.42757997
C        2.32316803      -3.97993148       2.69847268
C        1.52480552      -3.15958198       1.88742817
N        2.05194278      -5.39123120       2.83008243
C        1.91879541      -6.20750228       1.69810316
S        2.24394558      -5.83316527       0.08954503
N        1.52448443      -7.50250599       1.91691796
C        1.34916518      -8.14353189       3.10510725
O        1.01975818      -9.32299946       3.14906014
C        1.61218192      -7.31738636       4.29763151
C        1.58715366      -7.96727957       5.48105347
C        1.86832106      -7.40657759       6.81096081
C        3.19697936      -7.39047689       7.25797754
C        3.50920401      -6.88418786       8.52356821
Br       5.32451148      -6.89129704       9.07393187
C        2.49739451      -6.39373246       9.35129143
O        2.80187852      -5.89998379      10.58956018
C        1.17235007      -6.40972321       8.92015731
C        0.86439144      -6.91355020       7.65657811
O       -0.45956434      -6.89886037       7.31221996
C        1.87853160      -5.85900234       4.14668855
O        1.87298388      -5.12963987       5.13776602
H        3.05295809      -0.15713029       2.43041875
H        4.45067046      -1.58436012       3.89205415
H        3.99842284      -3.99283533       4.08145119
H        0.67193577      -3.56840633       1.35216712
H        1.41196445      -8.08690817       1.09679669
H        1.38001776      -9.03783127       5.51826684
H        3.99177829      -7.77523261       6.62342699
H        1.99048756      -5.56744507      11.00739594
H        0.36949394      -6.03429852       9.54681092
H       -0.54148900      -7.12328605       6.37204643
C       -0.00445707       0.01189536      -1.78238275
H       -0.66409135       0.67374010      -2.43557963
H        0.65740317      -0.63156657      -2.45157240
C       -0.90989263      -0.90692880      -0.91072765
C        0.90977584       0.90977584      -0.90977584
C       -0.00465871       1.77757030       0.00794375
H       -0.66225468       2.44313916      -0.64384735
H        0.64322798       2.43503045       0.67728295
C       -1.78241447       0.00034974      -0.00472694
H       -2.45427497      -0.65498947       0.64260836
H       -2.43311707       0.67328779      -0.65473579
C       -0.91132561       0.90220522       0.91563759
C       -0.01476271      -0.02253852       1.78660255
H       -0.67934791      -0.69751639       2.42135241
H        0.63392994       0.61504881       2.47327442
C        0.01484550      -1.77751727      -0.01636693
H        0.67870853      -2.42144646      -0.68295456
H       -0.62264859      -2.45592969       0.64226336
C        1.78714474       0.01002794       0.00389507
H        2.44202412       0.67113390       0.66197326
H        2.45385902      -0.65136977      -0.64189061
C        0.91606151      -0.90478549       0.90901405
