178
Properties=species:S:1:pos:R:3 pbc="F F F"
C        1.79038265       1.79038265      -1.79038265
C        2.83892701       1.23080972      -2.50689928
C        3.64644152       2.04345459      -3.31603122
C        3.42739373       3.42795413      -3.42879598
C        2.35675657       3.96039675      -2.68865768
C        1.54534176       3.15359025      -1.87761149
N        4.25322609       4.25481761      -4.25739457
C        4.09869469       5.61893173      -4.42027400
O        3.30659901       6.41870143      -3.95662720
C        5.13570520       6.07041557      -5.34269421
C        5.40387255       7.34142593      -5.82747098
C        6.47629001       7.41817756      -6.70289608
C        7.03590403       8.57163266      -7.40044769
O        6.54567526       9.67476397      -7.24286084
N        8.09964125       8.12159786      -8.16007781
C        8.91698637       8.94620924      -8.99901029
C        8.69131743      10.32895528      -9.11969630
C        9.48851135      11.13902644      -9.94150265
C       10.53329504      10.57862622     -10.66284100
Br      11.60868737      11.66507479     -11.77098212
C       10.78518333       9.21720902     -10.56739066
C        9.98404402       8.41297109      -9.74370074
C        8.25790729       6.75818667      -7.99280005
O        9.04962233       5.95863386      -8.45678118
C        7.22458151       6.30768041      -7.06567057
C        6.95674267       5.03672644      -6.58036891
C        5.88390884       4.95984917      -5.70547791
C        5.32042539       3.80541220      -5.01264372
O        5.81035086       2.70220683      -5.17038526
H        3.04451397       0.16461259      -2.44980977
H        4.44833649       1.54119605      -3.84901929
H        2.10957015       5.01765846      -2.71115823
H        0.72801585       3.60799963      -1.32283589
H        4.81829226       8.20927899      -5.54457837
H        7.89145488      10.83162377      -8.58404265
H        9.27760627      12.20383564     -10.00494938
H       11.59975105       8.76220606     -11.12574581
H       10.23600823       7.35698949      -9.71553363
H        7.54108583       4.16852777      -6.86474643
C       -1.79038265      -1.79038265      -1.79038265
C       -1.83443212      -3.16153002      -1.58067387
C       -2.64562183      -3.96826682      -2.39203868
C       -3.42882842      -3.42786099      -3.42745443
C       -3.35912745      -2.03541117      -3.61127239
C       -2.55009979      -1.22280927      -2.80363444
N       -4.25745749      -4.25463696      -4.25334382
C       -5.05478444      -3.79718896      -5.28592702
O       -5.25684378      -2.68564994      -5.73943392
C       -5.73136549      -4.95450156      -5.86294794
C       -6.63400247      -5.02579358      -6.91297341
C       -7.09172262      -6.30181779      -7.20382325
C       -8.03519566      -6.74920793      -8.22358079
O       -8.54333038      -5.94098618      -8.97898350
N       -8.16048631      -8.12042500      -8.10040561
C       -8.99930499      -8.94536313      -8.91753778
C       -9.79034387      -8.40345923      -9.94616592
C      -10.61408982      -9.20796158     -10.74698904
C      -10.66293585     -10.57835390     -10.53347251
Br     -11.77091921     -11.66525540     -11.60856967
C       -9.89508349     -11.14746998      -9.52722954
C       -9.07353636     -10.33707986      -8.73009963
C       -7.35867137      -8.57883336      -7.07138928
O       -7.15710339      -9.69013844      -6.61779554
C       -6.67747858      -7.42221831      -6.49823559
C       -5.77432804      -7.35095019      -5.44855979
C       -5.31712381      -6.07485251      -5.15725959
C       -4.37832169      -5.62661403      -4.13354559
O       -3.87037306      -6.43467151      -3.37789837
H       -1.24553441      -3.62220728      -0.79119464
H       -2.63319469      -5.03194975      -2.17340738
H       -3.92705354      -1.52670175      -4.38463155
H       -2.52713020      -0.15035053      -2.98137063
H       -6.95848513      -4.14981167      -7.46385283
H       -9.80011166      -7.34016834     -10.16684130
H      -11.20928334      -8.74607271     -11.53103523
H       -9.92161333     -12.21939052      -9.34669906
H       -8.50000683     -10.84688819      -7.96163633
H       -5.45130481      -8.22665967      -4.89639556
C       -1.79038265       1.79038265       1.79038265
C       -2.83459935       1.22970308       2.51233357
C       -3.64212579       2.04235338       3.32144816
C       -3.42739089       3.42795888       3.42879407
C       -2.36106949       3.96150301       2.68323851
C       -1.54966905       3.15469770       1.87217676
N       -4.25321740       4.25483172       4.25738914
C       -4.10275986       5.62000397       4.41513659
O       -3.31494886       6.42086835       3.94611042
C       -5.13817336       6.07110623       5.33953540
C       -5.40900723       7.34283907       5.82092316
C       -6.47871624       7.41893461       6.69971280
C       -7.03987660       8.57285030       7.39525748
O       -6.55392342       9.67709048       7.23228616
N       -8.09951156       8.12180239       8.16000297
C       -8.91680839       8.94648683       8.99891067
C       -8.69541975      10.33038805       9.11416122
C       -9.49257419      11.14054245       9.93592380
C      -10.53301117      10.57906465      10.66268644
Br     -11.60833038      11.66562406      11.77078984
C      -10.78060592       9.21648900      10.57268809
C       -9.97953227       8.41217470       9.74900888
C       -8.25372093       6.75730555       7.99786753
O       -9.04115091       5.95666046       8.46722600
C       -7.22201134       6.30715245       7.06876869
C       -6.95150793       5.03547311       6.58685697
C       -5.88138034       4.95925515       5.70860043
C       -5.31633132       3.80438665       5.01776333
O       -5.80198044       2.70007396       5.18088855
H       -3.03676408       0.16263047       2.45954178
H       -4.44050988       1.53919861       3.85884334
H       -2.11739231       5.01966358       2.70133095
H       -0.73576563       3.60998214       1.31310359
H       -4.82732955       8.21170111       5.53311895
H       -7.89907844      10.83393687       8.57410599
H       -9.28506523      12.20626666       9.99505940
H      -11.59173708       8.76063242      11.13533341
H      -10.22801066       7.35525887       9.72526182
H       -7.53194231       4.16627468       6.87614305
C        1.79038265      -1.79038265       1.79038265
C        1.83274814      -3.16179878       1.58208910
C        2.64394277      -3.96853540       2.39344916
C        3.42882799      -3.42786245       3.42745340
C        3.36080611      -2.03514413       3.60986077
C        2.55178374      -1.22254075       2.80221901
N        4.25745611      -4.25464134       4.25334082
C        5.05637029      -3.79694421       5.28458592
O        5.26009677      -2.68513887       5.73669199
C        5.73233318      -4.95436230       5.86211950
C        6.63601273      -5.02549829       6.91125844
C        7.09268343      -6.30169929       7.20298093
C        8.03676616      -6.74900875       8.22220947
O        8.54656650      -5.94052514       8.97620842
N        8.16046492      -8.12048903       8.10036297
C        8.99927526      -8.94545027       8.91748036
C        9.79198711      -8.40329484       9.94468706
C       10.61572912      -9.20782163      10.74548969
C       10.66288790     -10.57849188      10.53338247
Br      11.77085865     -11.66542843      11.60845720
C        9.89335743     -11.14786034       9.52856524
C        9.07182445     -10.33744420       8.73144719
C        7.35706553      -8.57913795       7.07269053
O        7.15383057      -9.69070996       6.62049685
C        6.67649429      -7.42240837       6.49902982
C        5.77230152      -7.35129536       5.45024113
C        5.31614634      -6.07502191       5.15806766
C        4.37673121      -5.62687332       4.13487678
O        3.86711688      -6.43519311       3.38063295
H        1.24251871      -3.62268848       0.79372914
H        2.63014967      -5.03243673       2.17596543
H        3.93009791      -1.52621713       4.38207180
H        2.53014590      -0.14986944       2.97883602
H        6.96201533      -4.14927662       7.46085768
H        9.80312263      -7.33978054      10.16421812
H       11.21224983      -8.74573283      11.52840862
H        9.91855311     -12.22000023       9.34914958
H        8.49693327     -10.84745892       7.96413916
H        5.44775727      -8.22724752       4.89935524
C       -0.00445707       0.01189536      -1.78238275
H       -0.66409135       0.67374010      -2.43557963
H        0.65740317      -0.63156657      -2.45157240
C       -0.90989263      -0.90692880      -0.91072765
C        0.90977584       0.90977584      -0.90977584
C       -0.00465871       1.77757030       0.00794375
H       -0.66225468       2.44313916      -0.64384735
H        0.64322798       2.43503045       0.67728295
C       -1.78241447       0.00034974      -0.00472694
H       -2.45427497      -0.65498947       0.64260836
H       -2.43311707       0.67328779      -0.65473579
C       -0.91132561       0.90220522       0.91563759
C       -0.01476271      -0.02253852       1.78660255
H       -0.67934791      -0.69751639       2.42135241
H        0.63392994       0.61504881       2.47327442
C        0.01484550      -1.77751727      -0.01636693
H        0.67870853      -2.42144646      -0.68295456
H       -0.62264859      -2.45592969       0.64226336
C        1.78714474       0.01002794       0.00389507
H        2.44202412       0.67113390       0.66197326
H        2.45385902      -0.65136977      -0.64189061
C        0.91606151      -0.90478549       0.90901405
