158
Properties=species:S:1:pos:R:3 pbc="F F F"
C        1.79275554       1.79275554      -1.79275554
C        2.18337514       3.04358184      -1.33168168
C        2.98879686       3.83720361      -2.13688209
C        3.38998512       3.37881431      -3.39767935
C        3.00161982       2.11749798      -3.89391208
C        2.19606645       1.33065847      -3.05243010
N        3.39778125       1.68580320      -5.22406718
C        2.75149469       0.62538177      -5.86633690
O        1.68653625       0.10521233      -5.54089482
N        3.33317979       0.17362019      -7.02211894
C        3.85412293       1.03617340      -7.93724891
O        3.78714354       0.82975886      -9.14275700
C        4.41680342       2.25774433      -7.33405309
C        4.80369121       3.25425403      -8.15437852
C        5.30076230       4.59170013      -7.79182827
C        6.37414406       5.13180137      -8.51225991
C        6.85615831       6.41354732      -8.22610213
C        6.26376599       7.16661471      -7.21431134
O        6.74098611       8.41401171      -6.92551501
C        5.17907749       6.65001759      -6.50554801
Br       4.33869863       7.63210797      -5.11669671
C        4.68516070       5.37841467      -6.80976272
C        4.47969242       2.30734259      -5.85083117
O        5.45065718       2.80571541      -5.28803034
H        1.87089221       3.40442794      -0.35605792
H        3.30798511       4.81882530      -1.79255603
H        4.00547181       4.06067828      -3.97909680
H        1.87684684       0.33329470      -3.33856202
H        2.81815275      -0.58433239      -7.45180892
H        4.73620025       3.10149777      -9.23317864
H        6.85192429       4.55655233      -9.30406998
H        7.69180749       6.80297399      -8.80094075
H        7.51054975       8.60244978      -7.48643646
H        3.81872782       5.00854812      -6.27085656
C       -1.79275554      -1.79275554      -1.79275554
C       -1.31751784      -3.02882904      -2.21229179
C       -2.12672018      -3.82661913      -3.00954324
C       -3.39893991      -3.38012728      -3.38741160
C       -3.90305774      -2.12702394      -2.98294819
C       -3.06683299      -1.34566027      -2.16666177
N       -5.21027552      -1.67143806      -3.42593805
C       -5.57837065      -0.32544112      -3.33940159
O       -4.83489924       0.63014042      -3.12788459
N       -6.89482017      -0.04102800      -3.59307075
C       -7.57006290      -0.65371883      -4.60376352
O       -8.41502006      -0.07176068      -5.27287867
C       -7.12026256      -2.03506383      -4.85327445
C       -7.59885856      -2.67563408      -5.93783113
C       -7.23128711      -4.00785017      -6.44515343
C       -8.24227129      -4.85058590      -6.92534815
C       -7.93538262      -6.11073892      -7.44968623
C       -6.60949740      -6.53665100      -7.49854363
O       -6.30912689      -7.77199253      -7.99939342
C       -5.59123578      -5.69768584      -7.04572146
Br      -3.77065898      -6.23009841      -7.08674592
C       -5.89925442      -4.43004502      -6.54403865
C       -6.13599019      -2.60435928      -3.89751671
O       -6.22120600      -3.77769499      -3.54550194
H       -0.32968001      -3.37695317      -1.92474489
H       -1.77392937      -4.79942409      -3.34601300
H       -3.96914084      -4.05030832      -4.02579774
H       -3.38526697      -0.38194176      -1.78149483
H       -7.10327393       0.94736039      -3.52971575
H       -8.33942488      -2.17057936      -6.56087242
H       -9.28445490      -4.53612161      -6.89197008
H       -8.74229976      -6.74189455      -7.81152791
H       -7.13038368      -8.23159138      -8.23746092
H       -5.09015866      -3.77875366      -6.22922017
C       -1.79275554       1.79275554       1.79275554
C       -1.91351195       1.49983483       3.14529189
C       -2.71294111       2.30876924       3.94117221
C       -3.39074849       3.39720369       3.37852660
C       -3.29276476       3.71249817       2.00776696
C       -2.46717081       2.88350358       1.22848064
N       -4.04174567       4.82280962       1.44309634
C       -4.24080534       4.93833974       0.06406828
O       -4.04642179       4.07043795      -0.78421633
N       -4.78095906       6.12000020      -0.37204033
C       -5.79117689       6.73026058       0.30610778
O       -6.69176780       7.33287061      -0.26497901
C       -5.72897585       6.51643167       1.76319333
C       -6.76911776       6.92971108       2.51349493
C       -6.98010101       6.74542364       3.95876604
C       -7.50337752       7.80862870       4.70619911
C       -7.75375604       7.66680435       6.07524738
C       -7.48256333       6.45487241       6.70725629
O       -7.71534520       6.31838683       8.04678081
C       -6.98383674       5.38099319       5.96981316
Br      -6.59450804       3.71109021       6.78190506
C       -6.75681230       5.51890590       4.59761989
C       -4.52624015       5.82182703       2.28979899
O       -4.01539416       6.18235015       3.34665863
H       -1.39266304       0.65404499       3.58467004
H       -2.81809236       2.09781074       5.00346335
H       -4.01118651       3.97553594       4.05852444
H       -2.30688456       3.07060329       0.17121570
H       -4.91560528       6.14487540      -1.37485141
H       -7.59311146       7.45302250       2.02474270
H       -7.71819443       8.76429257       4.23005960
H       -8.15721642       8.51094204       6.62756377
H       -8.02875380       7.16354083       8.40714135
H       -6.40169665       4.66139533       4.03504052
C        1.79275554      -1.79275554       1.79275554
C        3.00182939      -1.29494432       2.26186495
C        3.79546561      -2.10067374       3.06674320
C        3.37919866      -3.39816352       3.38911660
C        2.16120473      -3.93163518       2.92018997
C        1.37264089      -3.08939060       2.11712353
N        1.77505393      -5.29690535       3.23569236
C        0.77593343      -5.95501247       2.51226746
O        0.28929815      -5.60361163       1.43973363
N        0.35327059      -7.15587594       3.01977239
C        1.23359081      -8.05487482       3.53907962
O        1.08714537      -9.26394984       3.40856419
C        2.39909889      -7.42462032       4.18488164
C        3.41465216      -8.21672730       4.58094431
C        4.71001575      -7.81834468       5.15593027
C        5.23468732      -8.56340587       6.22011215
C        6.47872501      -8.24304371       6.77403905
C        7.20929173      -7.17187022       6.26353009
O        8.41914377      -6.85018878       6.81118028
C        6.70912845      -6.43686973       5.18864490
Br       7.66166089      -4.96754134       4.45830108
C        5.47659240      -6.77423830       4.62250739
C        2.37621746      -5.94524830       4.31640041
O        2.80365639      -5.40684432       5.33390222
H        3.33015893      -0.29055689       2.01066226
H        4.74457617      -1.72807282       3.44671745
H        4.05932517      -3.97667953       4.00924220
H        0.40509368      -3.40462353       1.73898635
H       -0.35986642      -7.59445833       2.45103737
H        3.31583276      -9.29693363       4.45811026
H        4.67638194      -9.40172195       6.63444271
H        6.85685981      -8.83841843       7.60044399
H        8.59902047      -7.43757907       7.56283644
H        5.12104052      -6.21240060       3.76469137
C       -0.00445707       0.01189536      -1.78238275
H       -0.66409135       0.67374010      -2.43557963
H        0.65740317      -0.63156657      -2.45157240
C       -0.90989263      -0.90692880      -0.91072765
C        0.90977584       0.90977584      -0.90977584
C       -0.00465871       1.77757030       0.00794375
H       -0.66225468       2.44313916      -0.64384735
H        0.64322798       2.43503045       0.67728295
C       -1.78241447       0.00034974      -0.00472694
H       -2.45427497      -0.65498947       0.64260836
H       -2.43311707       0.67328779      -0.65473579
C       -0.91132561       0.90220522       0.91563759
C       -0.01476271      -0.02253852       1.78660255
H       -0.67934791      -0.69751639       2.42135241
H        0.63392994       0.61504881       2.47327442
C        0.01484550      -1.77751727      -0.01636693
H        0.67870853      -2.42144646      -0.68295456
H       -0.62264859      -2.45592969       0.64226336
C        1.78714474       0.01002794       0.00389507
H        2.44202412       0.67113390       0.66197326
H        2.45385902      -0.65136977      -0.64189061
C        0.91606151      -0.90478549       0.90901405
