157
Properties=species:S:1:pos:R:3 pbc="F F F"
C        0.00000000       0.00000000       0.00000000
C        0.88181752       0.88181752      -0.88181752
C        1.57513902       1.94662465      -0.31682285
C        2.38456780       2.74643494      -1.12397693
C        2.49739138       2.49202452      -2.50291229
C        1.78539078       1.41884170      -3.07771817
C        1.85666776       1.07613781      -4.54038643
C        0.98693899       0.61245863      -2.24642493
N        3.36278475       3.32956764      -3.28492247
C        3.02102728       4.66800625      -3.50564980
S        1.60672814       5.46379911      -3.06199764
N        3.92760695       5.42254318      -4.20121445
C        5.12022506       5.03197422      -4.72981412
O        5.81773440       5.82502669      -5.35264287
C        5.48047597       3.61945379      -4.49033219
C        6.67678763       3.23903291      -4.98686548
C        7.31420660       1.92371027      -4.89176468
C        8.00724184       1.55335157      -3.73260253
C        8.64647130       0.31229160      -3.65966798
C        8.59823174      -0.55647154      -4.74747029
O        9.23225667      -1.76605642      -4.67899673
C        7.90874403      -0.19185946      -5.90819431
C        7.26881654       1.04779019      -5.98094677
C        4.55237970       2.72956227      -3.73478635
O        4.84670197       1.55579256      -3.50991251
H        1.49935449       2.15833310       0.74652789
H        2.93793192       3.56202358      -0.66424434
H        0.88947880       0.70153628      -4.89405477
H        2.61352989       0.30446532      -4.70978206
H        2.09313591       1.95076677      -5.15370896
H        0.44259135      -0.22830883      -2.67206984
H        3.67773089       6.38942075      -4.37498251
H        7.29358494       3.95391678      -5.53442059
H        8.05153856       2.22426517      -2.87842740
H        9.17493299       0.04613615      -2.74905868
H        9.62182300      -1.87309447      -3.79619993
H        6.73775392       1.33028580      -6.88660573
C        7.84377223      -1.06562784      -7.05095740
C        7.78935835      -1.79740886      -8.00802149
Br       7.70137570      -2.98063688      -9.55551318
C       -0.88181752      -0.88181752      -0.88181752
C       -0.33829945      -2.00542365      -1.49486343
C       -1.14800024      -2.81220637      -2.29477306
C       -2.50372883      -2.49426006      -2.49433931
C       -3.05201076      -1.34845953      -1.88148036
C       -4.49171304      -0.94287898      -2.03859998
C       -2.22557407      -0.55537281      -1.06487568
N       -3.29994943      -3.37070869      -3.30661675
C       -3.06110733      -3.45093033      -4.68264567
S       -1.99240509      -2.53545044      -5.60466935
N       -3.81251233      -4.35834791      -5.38050435
C       -4.78607690      -5.18601140      -4.90992510
O       -5.39226794      -5.93351287      -5.66962314
C       -5.03204262      -5.10255783      -3.45566149
C       -5.97515106      -5.94477797      -2.98275699
C       -6.42118091      -6.11097203      -1.59752861
C       -5.68607118      -6.90159124      -0.70553352
C       -6.13479718      -7.08874239       0.60510869
C       -7.32144719      -6.49060616       1.02282285
O       -7.76483421      -6.68240187       2.30203909
C       -8.06056072      -5.70092589       0.13640773
C       -7.61178030      -5.51271395      -1.17305925
C       -4.25182513      -4.14511983      -2.61978336
O       -4.43097318      -4.07748812      -1.40394575
H        0.70720611      -2.26598892      -1.35237689
H       -0.71454398      -3.69973476      -2.74992111
H       -4.58337364       0.14905181      -2.05074802
H       -5.08593904      -1.33431431      -1.20752390
H       -4.91595562      -1.29984163      -2.98181440
H       -2.63711386       0.32401191      -0.57325040
H       -3.65202067      -4.41008351      -6.38002997
H       -6.50496445      -6.61108827      -3.66586959
H       -4.75915884      -7.37336366      -1.02170864
H       -5.54595763      -7.70353365       1.27936346
H       -7.11633523      -7.21682840       2.78823517
H       -8.19126233      -4.90219682      -1.86118630
C       -9.29293131      -5.07248644       0.53631596
C      -10.32504168      -4.54616840       0.87123910
Br     -11.99387685      -3.69515664       1.41278149
C       -0.88181752       0.88181752       0.88181752
C       -1.83908145       0.29634784       1.70315723
C       -2.63876403       1.10425796       2.51195767
C       -2.49252059       2.50329014       2.49651746
C       -1.52919463       3.09759227       1.65516375
C       -1.30542812       4.58314817       1.58461571
C       -0.72011898       2.26712316       0.85858041
N       -3.32327735       3.28798721       3.36601031
C       -4.69782280       3.37557443       3.12128610
S       -5.56039093       2.75529707       1.81683688
N       -5.43571436       4.08422485       4.03142537
C       -4.99992642       4.73914614       5.14294084
O       -5.78611988       5.35509533       5.85418875
C       -3.54878702       4.64018060       5.40129433
C       -3.12011748       5.26276983       6.51979870
C       -1.75624767       5.32291656       7.05051732
C       -1.23802567       4.25771622       7.79745405
C        0.05035030       4.33431331       8.33446787
C        0.81887613       5.47799095       8.13011568
O        2.07520717       5.55615945       8.66424471
C        0.30650642       6.54548234       7.38610295
C       -0.98050695       6.46875472       6.84829183
C       -2.67306488       3.88057191       4.46309153
O       -1.46543047       3.77221052       4.67476605
H       -1.96641292      -0.78275938       1.72750615
H       -3.36800633       0.63088185       3.16531167
H       -1.03734663       4.88258411       0.56513911
H       -0.49457852       4.87415712       2.25904162
H       -2.20740797       5.14484445       1.84535923
H        0.03768198       2.70932646       0.21470787
H       -6.43010208       4.16147068       3.85056140
H       -3.82858025       5.80321410       7.15012796
H       -1.82980833       3.36107054       7.96335227
H        0.43159339       3.49427324       8.90744797
H        2.28533557       4.71988323       9.11038079
H       -1.37777114       7.30239985       6.27447445
C        1.07412337       7.74275227       7.16047289
C        1.71700257       8.74546584       6.97150770
Br       2.75648386      10.36676887       6.66596698
C        0.88181752      -0.88181752       0.88181752
C        2.26195057      -0.86406864       0.71256731
C        3.06501748      -1.66615363       1.52380855
C        2.49161669      -2.49831107       2.50240044
C        1.09108235      -2.52449894       2.66636935
C        0.40054240      -3.38015774       3.69249185
C        0.29753129      -1.69711055       1.85118071
N        3.36375355      -3.28569440       3.32782692
C        4.07920385      -4.34879617       2.76668332
S        3.97991582      -4.95293402       1.19967505
N        4.94258104      -5.00993744       3.59884610
C        5.18294242      -4.77978680       4.91928419
O        5.97552061      -5.47836563       5.54151773
C        4.42978566      -3.65315081       5.50732548
C        4.69032747      -3.40407040       6.80828814
C        4.12486708      -2.35052523       7.65428924
C        4.63906141      -1.04886413       7.60527041
C        4.12227733      -0.05482751       8.44132603
C        3.09549220      -0.36293278       9.33080552
O        2.59743950       0.60757091      10.15532839
C        2.57862847      -1.66120216       9.38524825
C        3.09401914      -2.65450261       8.54903176
C        3.47337929      -2.87504772       4.66830131
O        2.85303575      -1.92137569       5.13799560
H        2.72219694      -0.22782289      -0.03886013
H        4.14410695      -1.62531467       1.39477823
H       -0.56158502      -3.73785908       3.30879578
H        0.22044721      -2.80299350       4.60433655
H        0.98507094      -4.27081193       3.94172877
H       -0.78368500      -1.69498296       1.97505439
H        5.45296341      -5.78947315       3.19969759
H        5.40229101      -4.02745317       7.35217813
H        5.44077829      -0.79819514       6.91525771
H        4.53513051       0.94789770       8.38289501
H        3.03697719       1.45055094       9.95850220
H        2.69333069      -3.66404263       8.59727212
C        1.52028447      -2.01245447      10.29636285
C        0.63392138      -2.30662828      11.05942132
Br      -0.79925278      -2.78228245      12.29322233
