178
Properties=species:S:1:pos:R:3 pbc="F F F"
C        1.79172155       1.79172155      -1.79172155
C        2.48504304       2.85652868      -1.22672688
C        3.29447182       3.65633896      -2.03388095
C        3.40729540       3.40192855      -3.41281632
C        2.69529480       2.32874573      -3.98762219
C        2.76657178       1.98604183      -5.45029045
C        1.89684302       1.52236266      -3.15632895
N        4.27268878       4.23947167      -4.19482650
C        3.93093130       5.57791028      -4.41555383
S        2.51663216       6.37370313      -3.97190166
N        4.83751098       6.33244720      -5.11111847
C        6.03012908       5.94187825      -5.63971815
O        6.72763843       6.73493071      -6.26254690
C        6.39037999       4.52935782      -5.40023621
C        7.58669165       4.14893693      -5.89676951
C        8.22411062       2.83361430      -5.80166870
C        8.91714586       2.46325559      -4.64250656
C        9.55637532       1.22219563      -4.56957200
C        9.50813577       0.35343249      -5.65737432
O       10.14216070      -0.85615240      -5.58890076
C        8.81864805       0.71804456      -6.81809834
C        8.17872057       1.95769421      -6.89085080
C        5.46228373       3.63946629      -4.64469038
O        5.75660600       2.46569658      -4.41981654
H        2.40925852       3.06823712      -0.16337614
H        3.84783595       4.47192760      -1.57414837
H        1.79938282       1.61144030      -5.80395880
H        3.52343391       1.21436934      -5.61968608
H        3.00303993       2.86067080      -6.06361299
H        1.35249537       0.68159519      -3.58197386
H        4.58763492       7.29932477      -5.28488654
H        8.20348897       4.86382081      -6.44432461
H        8.96144259       3.13416920      -3.78833143
H       10.08483702       0.95604018      -3.65896270
H       10.53172702      -0.96319044      -4.70610396
H        7.64765794       2.24018982      -7.79650975
C        8.75367625      -0.15572382      -7.96086143
C        8.69926237      -0.88750484      -8.91792551
Br       8.61127973      -2.07073285     -10.46541720
C       -1.79172155      -1.79172155      -1.79172155
C       -1.30655685      -2.25008227      -3.01165948
C       -2.11232588      -3.06041434      -3.81195152
C       -3.41191066      -3.40880859      -3.40132102
C       -3.90786051      -2.93467336      -2.16912885
C       -5.28177945      -3.26617379      -1.65495083
C       -3.07603101      -2.13236414      -1.36713948
N       -4.19141294      -4.26540354      -4.25017046
C       -4.65085410      -3.79039853      -5.48314277
S       -4.51668593      -2.23512628      -6.11042475
N       -5.32794982      -4.68523887      -6.26788797
C       -5.63424002      -5.98349410      -5.99399136
O       -6.27272990      -6.65757324      -6.79481289
C       -5.14301402      -6.48340435      -4.69355565
C       -5.41889676      -7.77920530      -4.43429603
C       -5.04790177      -8.55977523      -3.25171662
C       -3.76693007      -9.11477033      -3.14120761
C       -3.42847126      -9.89082541      -2.02884628
C       -4.37209774     -10.11732663      -1.02951821
O       -4.04336231     -10.88487984       0.05333309
C       -5.65328881      -9.56678344      -1.13471869
C       -5.99144958      -8.79019894      -2.24561706
C       -4.38977052      -5.57602260      -3.78064727
O       -3.95685982      -5.98265195      -2.70260735
H       -0.30525567      -1.99041720      -3.34519891
H       -1.71138683      -3.42936461      -4.75316048
H       -5.69767921      -2.41881720      -1.09828551
H       -5.23549061      -4.13299708      -0.98900164
H       -5.98257548      -3.47629055      -2.46845769
H       -3.43864343      -1.77043727      -0.40698373
H       -5.67426909      -4.34129216      -7.15628497
H       -5.98238461      -8.37305244      -5.15619733
H       -3.02346359      -8.94466069      -3.91581894
H       -2.42791672     -10.30795930      -1.96396388
H       -3.11165078     -11.14943362      -0.01355614
H       -6.98991484      -8.36767041      -2.32677227
C       -6.65221636      -9.78569427      -0.12090323
C       -7.48881819      -9.96903209       0.72816723
Br      -8.84153258     -10.26547384       2.10104234
C       -1.79172155       1.79172155       1.79172155
C       -1.53330170       1.87975129       3.15524560
C       -2.33689390       2.69091006       3.95688778
C       -3.40997641       3.41097678       3.40108708
C       -3.67875200       3.31283637       2.02007435
C       -4.80113985       4.05429916       1.34746506
C       -2.84840936       2.50342461       1.22370066
N       -4.19131485       4.25066011       4.26501198
C       -5.01351251       3.67275541       5.23812749
S       -5.33204863       2.04014182       5.49004650
N       -5.67475150       4.53665724       6.06966791
C       -5.65343233       5.89818351       6.06010963
O       -6.32385487       6.53959751       6.86166365
C       -4.78012578       6.50509031       5.03475793
C       -4.73381165       7.85423444       5.04435200
C       -3.94956806       8.73458813       4.17523744
C       -2.59758026       8.97859081       4.44673694
C       -1.86192863       9.84901228       3.63720204
C       -2.47888938      10.48039642       2.55965677
O       -1.76115734      11.33941258       1.77433914
C       -3.82897063      10.24169785       2.28412248
C       -4.56409047       9.37098023       3.09219488
C       -4.01819883       5.63552965       4.09271192
O       -3.27126283       6.12510105       3.24575523
H       -0.70893626       1.33002920       3.60190632
H       -2.10924436       2.76705941       5.01760814
H       -5.22601668       3.45282044       0.53594481
H       -4.43286705       4.99569086       0.92893142
H       -5.62241758       4.26636253       2.03854361
H       -3.03370450       2.42843501       0.15392491
H       -6.28204114       4.12229268       6.76751241
H       -5.32929516       8.41641373       5.76592550
H       -2.10685653       8.49151272       5.28557397
H       -0.81413913      10.01992636       3.86577440
H       -0.83945755      11.35632324       2.07885974
H       -5.61480114       9.19132688       2.87822949
C       -4.49658216      10.88180882       1.18042288
C       -5.05570681      11.41790176       0.25607448
Br      -5.95976409      12.28471870      -1.23851872
C        1.79172155      -1.79172155       1.79172155
C        2.34849638      -2.95288783       1.26691439
C        3.15848681      -3.75294176       2.07326317
C        3.40818812      -3.40153099       3.41232116
C        2.83435542      -2.22968098       3.94762632
C        3.05687184      -1.78044898       5.36558325
C        2.03372479      -1.42593181       3.11587803
N        4.26865549      -4.24581352       4.19251793
C        3.84287532      -5.52871763       4.55280246
S        2.33774356      -6.23333019       4.29116321
N        4.74339735      -6.30086024       5.23681907
C        6.00375332      -5.97314860       5.63482357
O        6.68738409      -6.77142390       6.26630804
C        6.45212261      -4.61971406       5.24813735
C        7.71261398      -4.30491660       5.61486751
C        8.44096235      -3.06032763       5.35810364
C        9.05952029      -2.84267373       4.12071399
C        9.78572329      -1.67025908       3.89216058
C        9.89887910      -0.71777454       4.90228893
O       10.61782030       0.42417201       4.68126076
C        9.28442952      -0.92990055       6.14046089
C        8.55762847      -2.10086915       6.36876796
C        5.53574650      -3.71600734       4.49468656
O        5.90111974      -2.59293941       4.14805997
H        2.16586477      -3.24024938       0.23475762
H        3.60481096      -4.64635998       1.64274098
H        2.15581795      -1.29806776       5.76089621
H        3.88370914      -1.06525023       5.40852996
H        3.27535249      -2.62116133       6.03080990
H        1.59542623      -0.51095225       3.50968595
H        4.43406562      -7.22623990       5.51154071
H        8.31579689      -5.02457886       6.17125864
H        8.97792633      -3.57995148       3.32606541
H       10.25383753      -1.52253494       2.92346742
H       10.93784763       0.42788837       3.76468127
H        8.08522464      -2.26499021       7.33414266
C        9.38604849       0.03330132       7.20606669
C        9.47115439       0.83998289       8.09851155
Br       9.60876342       2.14431876       9.54151942
C       -0.00445707       0.01189536      -1.78238275
H       -0.66409135       0.67374010      -2.43557963
H        0.65740317      -0.63156657      -2.45157240
C       -0.90989263      -0.90692880      -0.91072765
C        0.90977584       0.90977584      -0.90977584
C       -0.00465871       1.77757030       0.00794375
H       -0.66225468       2.44313916      -0.64384735
H        0.64322798       2.43503045       0.67728295
C       -1.78241447       0.00034974      -0.00472694
H       -2.45427497      -0.65498947       0.64260836
H       -2.43311707       0.67328779      -0.65473579
C       -0.91132561       0.90220522       0.91563759
C       -0.01476271      -0.02253852       1.78660255
H       -0.67934791      -0.69751639       2.42135241
H        0.63392994       0.61504881       2.47327442
C        0.01484550      -1.77751727      -0.01636693
H        0.67870853      -2.42144646      -0.68295456
H       -0.62264859      -2.45592969       0.64226336
C        1.78714474       0.01002794       0.00389507
H        2.44202412       0.67113390       0.66197326
H        2.45385902      -0.65136977      -0.64189061
C        0.91606151      -0.90478549       0.90901405
