121
Properties=species:S:1:pos:R:3 pbc="F F F"
C        0.00000000       0.00000000       0.00000000
C        0.89107783       0.89107783      -0.89107783
C        2.24677649       0.96668167      -0.53486496
C        3.07623632       1.73811929      -1.31772890
O        4.41186032       1.91712381      -1.12612101
C        4.72736888       2.77870217      -2.23965976
O        3.58389881       3.13048302      -3.03943061
C        2.60608199       2.42597835      -2.40837657
C        1.28056880       2.37255906      -2.77976513
C        0.39019435       1.58092218      -2.02488934
C       -1.02723231       1.51539499      -2.43906743
H       -1.76073790       1.48555328      -1.63880728
N       -1.30231524       1.49052274      -3.74851181
N       -2.70287809       1.40249678      -3.99390179
C       -3.29812219       1.40598862      -5.24880181
O       -4.52652768       1.32142436      -5.31212651
C       -2.45730306       1.51214188      -6.41757568
N       -1.08896391       1.55970733      -6.36592693
H       -0.55598250       1.52507737      -5.49488219
N       -0.47698385       1.66810364      -7.56811344
C       -1.50659897       1.68766804      -8.41908434
C       -2.74232783       1.59033598      -7.76032460
H        2.64055340       0.43196131       0.32083166
H        5.46017131       2.27174170      -2.87843594
H        5.17931687       3.69862459      -1.85158657
H        0.93134503       2.92914916      -3.64361566
H       -3.32834634       1.33011015      -3.20159528
H       -1.30692698       1.77257218      -9.47819509
C       -4.01285167       1.58890990      -8.43809088
C       -5.07691539       1.58771556      -9.00572014
Br      -6.79741642       1.58578440      -9.92352865
C       -0.89107783      -0.89107783      -0.89107783
C       -2.25822745      -0.57362029      -0.91647538
C       -3.08158248      -1.33582278      -1.71467926
O       -4.42337503      -1.16509211      -1.86663800
C       -4.71952128      -2.21309986      -2.81310966
O       -3.57472828      -3.00839330      -3.17069086
C       -2.59847224      -2.38262168      -2.45934299
C       -1.26250059      -2.71861399      -2.45177840
C       -0.37050491      -1.95825117      -1.66724979
C        1.06407207      -2.31438468      -1.67691751
H        1.58852994      -2.22163848      -0.73051412
N        1.60847260      -2.71233400      -2.83285792
N        2.99741205      -2.99706292      -2.69386962
C        3.82225382      -3.47489848      -3.70402358
O        5.01004342      -3.67568610      -3.44138051
C        3.25487703      -3.71821730      -5.00907423
N        1.94872517      -3.45609806      -5.32929747
H        1.27285618      -3.06865082      -4.66818242
N        1.60225831      -3.75966534      -6.60182620
C        2.74328698      -4.23356138      -7.10987901
C        3.78717802      -4.22406937      -6.17144140
H       -2.66196926       0.24835050      -0.33806428
H       -5.12923190      -1.75838426      -3.72273280
H       -5.48050536      -2.87094739      -2.37807528
H       -0.90481058      -3.55381084      -3.04548843
H        3.43413007      -2.84357432      -1.79391485
H        2.75902782      -4.56361572      -8.13925239
C        5.12270596      -4.68183177      -6.45502330
C        6.24121062      -5.06520779      -6.69252314
Br       8.04973804      -5.68509437      -7.07654030
C       -0.89107783       0.89107783       0.89107783
C       -0.95931061       2.24860998       0.54040253
C       -1.75905443       3.07102889       1.30200120
O       -1.94946328       4.40381616       1.10182570
C       -2.87678422       4.70297183       2.16597476
O       -3.18506132       3.57032294       2.99842818
C       -2.46481062       2.59642280       2.37920349
C       -2.41473437       1.27007806       2.74808056
C       -1.62685700       0.37876846       1.99038040
C       -1.59098009      -1.04603345       2.38228346
H       -0.63408742      -1.54894319       2.27847842
N       -2.72235369      -1.60872245       2.82308808
N       -2.54086126      -2.98603633       3.13869556
C       -3.51738328      -3.82331321       3.66259817
O       -3.21954751      -4.99866927       3.88614495
C       -4.83003930      -3.28260113       3.92497633
N       -5.18997193      -1.99196060       3.63865902
H       -4.55620660      -1.30994948       3.21771994
N       -6.46297954      -1.66966744       3.96592113
C       -6.92973775      -2.81051813       4.48093379
C       -5.96545587      -3.83060077       4.47347766
H       -0.41206999       2.64550119      -0.30588814
H       -3.80763014       5.07813245       1.72458637
H       -2.44508219       5.49112462       2.79332121
H       -2.97811153       0.91916607       3.60683225
H       -1.63414367      -3.40397203       2.97318746
H       -7.94982793      -2.84346552       4.83747788
C       -6.20331742      -5.16064533       4.97147702
C       -6.40252646      -6.27455764       5.38855149
Br      -6.72463064      -8.07565964       6.06292563
C        0.89107783      -0.89107783       0.89107783
C        0.69947300      -2.27660608       0.77224404
C        1.48936921      -3.10400530       1.53871000
O        1.44622113      -4.46442910       1.54445491
C        2.48860316      -4.75975381       2.49737383
O        3.09687925      -3.58765014       3.06928304
C        2.43093921      -2.60552819       2.40396952
C        2.63880818      -1.25084633       2.54323847
C        1.87118790      -0.35779081       1.76702716
C        2.11119714       1.09374413       1.90977710
H        1.23439433       1.73270000       1.86192833
N        3.37117536       1.51226013       2.07780408
N        3.44929824       2.93137085       2.17559309
C        4.61268848       3.65609912       2.40007888
O        4.53221808       4.88496162       2.45976673
C        5.85780453       2.94242703       2.55703700
N        5.97120365       1.58143717       2.44690387
H        5.18207054       0.96422750       2.24613402
N        7.22066455       1.09683878       2.63540745
C        7.93011534       2.20346872       2.87350679
C        7.13804797       3.36164146       2.83192623
H       -0.03672026      -2.69287422       0.09552908
H        3.26516525      -5.34927140       1.99591230
H        2.06063176      -5.36217267       3.30672360
H        3.38615612      -0.88032749       3.23762624
H        2.59841120       3.46993194       2.07487984
H        8.98997127       2.11263456       3.06650358
C        7.64914678       4.68938053       3.05438286
C        8.07719204       5.80136201       3.24069028
Br       8.76930501       7.59934201       3.54193363
