137
Properties=species:S:1:pos:R:3 pbc="F F F"
C        0.00000000       0.00000000       0.00000000
C        0.88206554       0.88206554      -0.88206554
C        1.87999095       1.66255208      -0.29934302
C        2.68673222       2.46847092      -1.10349754
C        2.49525758       2.49105360      -2.48633350
C        1.49385265       1.70396460      -3.06366129
C        1.27156244       1.69435802      -4.52390775
N        1.96642896       2.42654589      -5.33962688
N        1.62752983       2.27153983      -6.65763406
C        2.19214292       2.96357453      -7.71886473
O        1.79382367       2.71102588      -8.85631678
C        3.20413374       3.95187578      -7.44932400
N        3.70457900       4.25878893      -6.21881054
H        3.42529478       3.82393443      -5.34409286
N        4.62762669       5.23411603      -6.21658923
C        4.72712700       5.57877571      -7.50857350
C        3.87176326       4.79414330      -8.31709823
C        5.63449555       6.67934871      -7.97025725
C        6.44282853       7.41786782      -7.12645541
C        7.18164017       8.42122036      -7.82472997
C        6.90195060       8.39281363      -9.16719217
S        5.78822625       7.19087029      -9.59593583
C        0.68160502       0.89621391      -2.26212623
H        2.03754809       1.65006148       0.77651247
H        3.46667705       3.07845393      -0.65281242
H        3.13410406       3.12214191      -3.09775282
H        0.47329100       1.02253385      -4.89133904
H        0.91167022       1.60402260      -6.92758691
H        3.73300495       4.83961910      -9.38879081
H        6.49390666       7.25074063      -6.05649852
H        7.86772000       9.11551686      -7.35587423
H       -0.09920680       0.28226491      -2.70261606
C        7.49175193       9.29503160     -10.12204143
C        7.98571055      10.05063916     -10.92172768
Br       8.78439985      11.27239267     -12.21475272
C       -0.88206554      -0.88206554      -0.88206554
C       -2.06887532      -0.36880708      -1.40420366
C       -2.87550109      -1.17291913      -2.21028046
C       -2.49361546      -2.48572960      -2.49329963
C       -1.30095286      -2.99272052      -1.96780516
C       -0.86052054      -4.37274310      -2.25656458
N       -1.55977953      -5.19007760      -2.98274460
N       -0.98280974      -6.42053198      -3.15336200
C       -1.54186477      -7.47971863      -3.85299879
O       -0.90042244      -8.52775980      -3.93298408
C       -2.84586624      -7.31756765      -4.44189962
N       -3.59372984      -6.17804468      -4.41040395
H       -3.31856648      -5.30484249      -3.96991311
N       -4.79074987      -6.27657937      -5.01100271
C       -4.82156890      -7.54330542      -5.44960189
C       -3.62344713      -8.22577756      -5.13378010
C       -6.01380784      -8.10975303      -6.16054064
C       -7.16285784      -7.39125318      -6.43304074
C       -8.15232454      -8.18170858      -7.09355739
C       -7.70439387      -9.46229848      -7.29526404
S       -6.13297372      -9.72272006      -6.71933860
C       -0.49017633      -2.19172647      -1.15804235
H       -2.37348103       0.65296987      -1.19058594
H       -3.80189181      -0.77609090      -2.61996068
H       -3.13211284      -3.09702053      -3.12486542
H        0.10790915      -4.67759705      -1.81747599
H       -0.06973124      -6.61795567      -2.75559282
H       -3.35616840      -9.25020551      -5.35504095
H       -7.28966355      -6.34914584      -6.16233642
H       -9.12847436      -7.81952889      -7.39110783
H        0.43761904      -2.57816166      -0.74513154
C       -8.48917832     -10.48885468      -7.93079197
C       -9.14643530     -11.34859549      -8.46304660
Br     -10.20916425     -12.73872367      -9.32365733
C       -0.88206554       0.88206554       0.88206554
C       -0.42804645       2.14147558       1.27236403
C       -1.23250509       2.94852613       2.07766945
C       -2.48765662       2.49597711       2.48901096
C       -2.93700999       1.23267732       2.09179123
C       -4.26401868       0.72727431       2.49853522
N       -5.06574976       1.40741066       3.25944131
N       -6.25766931       0.78321486       3.51581954
C       -7.26661811       1.28070135       4.32726273
O       -8.29214635       0.61166850       4.45735147
C       -7.07084309       2.54349519       4.99099523
N       -5.97233714       3.34162682       4.86821451
H       -5.16086433       3.14211534       4.29034240
N       -6.00947004       4.46339645       5.60546546
C       -7.18810051       4.38625072       6.24012499
C       -7.89283985       3.21541833       5.87474660
C       -7.63506777       5.43206161       7.21697213
C       -6.89423444       6.55374101       7.53917631
C       -7.54167664       7.36793917       8.51797470
C       -8.74641765       6.82705259       8.88848615
S       -9.10976972       5.38177796       8.08348469
C       -2.13399677       0.41942623       1.28652215
H        0.54730380       2.50297913       0.95542176
H       -0.88215814       3.93188155       2.38390369
H       -3.10210783       3.13834754       3.11354341
H       -4.54332909      -0.27246002       2.11629482
H       -6.46484213      -0.11791567       3.09635327
H       -8.86242078       2.88092233       6.21807176
H       -5.92838165       6.77399979       7.09876437
H       -7.13337446       8.28756398       8.91817264
H       -2.47527188      -0.56371469       0.97411698
C       -9.61899677       7.42313182       9.86669637
C      -10.34978179       7.92234818      10.68594742
Br     -11.53139934       8.72953881      12.01060709
C        0.88206554      -0.88206554       0.88206554
C        0.34848163      -1.45975714       2.03364729
C        1.15257808      -2.26591562       2.84020698
C        2.48572756      -2.49355434       2.49336279
C        3.01312760      -1.91251707       1.33583387
C        4.41549668      -2.14177032       0.93256121
N        5.23360145      -2.86411267       1.63488760
N        6.48702953      -2.97562443       1.09404975
C        7.55036384      -3.65897746       1.66524089
O        8.62063369      -3.68368960       1.05684303
C        7.36595469      -4.29594078       2.94343804
N        6.20248503      -4.32616425       3.65352918
H        5.32441572      -3.90514194       3.36376441
N        6.28232172      -4.96283814       4.83317209
C        7.56130994      -5.36113251       4.89203376
C        8.27116737      -4.98369988       3.72813754
C        8.11238806      -6.09277507       6.07893837
C        7.36668054      -6.42645907       7.19401215
C        8.14638534      -7.09374917       8.18745599
C        9.44676893      -7.23900075       7.77618670
S        9.73840137      -6.60291521       6.23371579
C        2.21215681      -1.10243762       0.52535072
H       -0.68914148      -1.28948153       2.31075704
H        0.73995072      -2.71883427       3.73915840
H        3.09681672      -3.12600517       3.13117689
H        4.73662452      -1.66104044      -0.01050107
H        6.70043460      -2.54147980       0.20136532
H        9.31048935      -5.16276910       3.48815641
H        6.31258127      -6.19388753       7.29467702
H        7.76302659      -7.43519971       9.14088479
H        2.61433994      -0.64658028      -0.37524606
C       10.46808977      -7.86689064       8.57384455
C       11.32344597      -8.39274843       9.24188299
Br      12.70648460      -9.24301599      10.32204466
