158
Properties=species:S:1:pos:R:3 pbc="F F F"
C        1.79196956       1.79196956      -1.79196956
C        2.78989498       2.57245611      -1.20924705
C        3.59663624       3.37837495      -2.01340157
C        3.40516160       3.40095763      -3.39623753
C        2.40375667       2.61386862      -3.97356532
C        2.18146647       2.60426204      -5.43381177
N        2.87633299       3.33644991      -6.24953091
N        2.53743386       3.18144385      -7.56753808
C        3.10204694       3.87347856      -8.62876876
O        2.70372769       3.62092990      -9.76622080
C        4.11403776       4.86177980      -8.35922802
N        4.61448303       5.16869295      -7.12871456
H        4.33519881       4.73383845      -6.25399688
N        5.53753071       6.14402006      -7.12649326
C        5.63703103       6.48867973      -8.41847752
C        4.78166728       5.70404732      -9.22700225
C        6.54439957       7.58925273      -8.88016127
C        7.35273256       8.32777185      -8.03635943
C        8.09154420       9.33112438      -8.73463400
C        7.81185462       9.30271765     -10.07709619
S        6.69813028       8.10077432     -10.50583985
C        1.59150904       1.80611793      -3.17203025
H        2.94745211       2.55996550      -0.13339155
H        4.37658107       3.98835795      -1.56271644
H        4.04400808       4.03204594      -4.00765684
H        1.38319502       1.93243788      -5.80124307
H        1.82157424       2.51392662      -7.83749093
H        4.64290897       5.74952313     -10.29869483
H        7.40381069       8.16064466      -6.96640254
H        8.77762402      10.02542088      -8.26577825
H        0.81069722       1.19216893      -3.61252008
C        8.40165596      10.20493563     -11.03194545
C        8.89561457      10.96054318     -11.83163171
Br       9.69430388      12.18229669     -13.12465675
C       -1.79196956      -1.79196956      -1.79196956
C       -1.73232572      -1.66033004      -3.17894237
C       -2.53698205      -2.46537385      -3.98605686
C       -3.39693120      -3.39974803      -3.40567753
C       -3.44964329      -3.52746529      -2.01408203
C       -4.33884279      -4.51363017      -1.36706732
N       -5.13028061      -5.28815893      -2.04387426
N       -5.86654248      -6.14757974      -1.27229358
C       -6.80829983      -7.04794779      -1.74804664
O       -7.38780263      -7.76833126      -0.93474451
C       -7.07870221      -7.09471536      -3.16162802
N       -6.45485589      -6.34374384      -4.11329082
H       -5.72126251      -5.66280177      -3.93896986
N       -6.89514828      -6.54743123      -5.36546452
C       -7.85408933      -7.47283988      -5.21725908
C       -7.99192054      -7.85773905      -3.86305726
C       -8.65648044      -7.97929946      -6.37803369
C       -8.47895154      -7.55599540      -7.68191689
C       -9.39570455      -8.17837297      -8.58322506
C      -10.22271213      -9.04879774      -7.92015860
S       -9.91295433      -9.13462708      -6.25716303
C       -2.64685832      -2.72189414      -1.20090477
H       -1.06435428      -0.93658568      -3.63986921
H       -2.49303473      -2.36610186      -5.06851886
H       -4.01440147      -4.02028489      -4.04902449
H       -4.29476826      -4.55937529      -0.26273242
H       -5.74401199      -6.16446105      -0.26451876
H       -8.67649549      -8.57825687      -3.43637457
H       -7.73139445      -6.82667886      -7.97278457
H       -9.43589922      -7.98500539      -9.64791855
H       -2.68231885      -2.81422088      -0.11884650
C      -11.25580999      -9.81456858      -8.56815847
C      -12.12102945     -10.45590166      -9.11085836
Br     -13.52001613     -11.49288300      -9.98835818
C       -1.79196956       1.79196956       1.79196956
C       -2.52703420       2.82794079       1.21662314
C       -3.33341875       3.63429197       2.02070203
C       -3.40414612       3.40249090       3.39571975
C       -2.66573364       2.36031405       3.96514292
C       -2.72620350       2.07932717       5.41400962
N       -3.43790940       2.79134957       6.23305483
N       -3.38148555       2.36987706       7.53505317
C       -4.01938064       2.97983800       8.60507562
O       -3.88677034       2.48105726       9.72305079
C       -4.79422881       4.17061911       8.37019768
N       -4.99979766       4.75595130       7.15614158
H       -4.63308992       4.41958672       6.27035750
N       -5.74070445       5.87535162       7.19198795
C       -6.02574344       6.02479078       8.49365406
C       -5.47198284       4.97604665       9.26468736
C       -6.81892565       7.18963272       9.00525521
C       -7.32772022       8.19038512       8.19875849
C       -8.01726489       9.19204516       8.94799253
C       -8.00290881       8.90058662      10.28817303
S       -7.19299005       7.45849884      10.65325555
C       -1.85479153       1.55073958       3.16412611
H       -2.47953472       3.01482168       0.14645276
H       -3.90881645       4.44320577       1.57563324
H       -4.03905888       4.03813397       4.00651801
H       -2.12712636       1.22012214       5.76962747
H       -2.84330508       1.54568378       7.78400294
H       -5.53173193       4.82533291      10.33406209
H       -7.20244548       8.20640725       7.12200515
H       -8.48497347      10.06791714       8.51593255
H       -1.27726141       0.73942297       3.59870185
C       -8.61213824       9.73579790      11.29060090
C       -9.12236788      10.43528734      12.13013424
Br      -9.94736607      11.56630260      13.48758865
C        1.79196956      -1.79196956       1.79196956
C        1.68669026      -1.70514927       3.17975860
C        2.49128481      -2.51026876       3.98685918
C        3.39675589      -3.40001598       3.40558488
C        3.49512726      -3.48298266       2.01308070
C        4.43342321      -4.42153333       1.36458374
N        5.22777763      -5.19253159       2.04200458
N        6.01309492      -6.00519156       1.26812931
C        6.96755512      -6.89118182       1.74555731
O        7.59320969      -7.56834677       0.92932193
C        7.19673612      -6.97352241       3.16478706
N        6.52168122      -6.27140874       4.11880058
H        5.77293473      -5.60771933       3.94238008
N        6.93029214      -6.50043222       5.37731966
C        7.92141766      -7.39162150       5.23114912
C        8.11166315      -7.73013378       3.87091992
C        8.70389996      -7.90944294       6.40047068
C        8.47431549      -7.53219600       7.71035234
C        9.38242519      -8.15436930       8.62050809
C       10.25548814      -8.97865700       7.95752332
S        9.99857440      -9.02225521       6.28391484
C        2.69256794      -2.67709260       1.19999669
H        0.98311890      -1.01638017       3.64131009
H        2.41182614      -2.44589463       5.06993470
H        4.01354456      -4.02135052       4.04881578
H        4.42394225      -4.43439493       0.25853878
H        5.92144054      -5.99455754       0.25699372
H        8.83069521      -8.41624049       3.44419123
H        7.69616297      -6.83498709       7.99970783
H        9.38465256      -7.99291248       9.69125811
H        2.76332074      -2.73479509       0.11727040
C       11.29187154      -9.73276289       8.61390261
C       12.15984263     -10.36432657       9.16362027
Br      13.56327848     -11.38551162      10.05246722
C       -0.00445707       0.01189536      -1.78238275
H       -0.66409135       0.67374010      -2.43557963
H        0.65740317      -0.63156657      -2.45157240
C       -0.90989263      -0.90692880      -0.91072765
C        0.90977584       0.90977584      -0.90977584
C       -0.00465871       1.77757030       0.00794375
H       -0.66225468       2.44313916      -0.64384735
H        0.64322798       2.43503045       0.67728295
C       -1.78241447       0.00034974      -0.00472694
H       -2.45427497      -0.65498947       0.64260836
H       -2.43311707       0.67328779      -0.65473579
C       -0.91132561       0.90220522       0.91563759
C       -0.01476271      -0.02253852       1.78660255
H       -0.67934791      -0.69751639       2.42135241
H        0.63392994       0.61504881       2.47327442
C        0.01484550      -1.77751727      -0.01636693
H        0.67870853      -2.42144646      -0.68295456
H       -0.62264859      -2.45592969       0.64226336
C        1.78714474       0.01002794       0.00389507
H        2.44202412       0.67113390       0.66197326
H        2.45385902      -0.65136977      -0.64189061
C        0.91606151      -0.90478549       0.90901405
