150
Properties=species:S:1:pos:R:3 pbc="F F F"
C        1.79196956       1.79196956      -1.79196956
C        2.78989498       2.57245611      -1.20924705
C        3.59663624       3.37837495      -2.01340157
C        3.40516160       3.40095763      -3.39623753
C        2.40375667       2.61386862      -3.97356532
C        2.18146647       2.60426204      -5.43381177
N        2.87633299       3.33644991      -6.24953091
N        2.53743386       3.18144385      -7.56753808
C        3.10204694       3.87347856      -8.62876876
O        2.70372769       3.62092990      -9.76622080
C        4.11403776       4.86177980      -8.35922802
N        4.61448303       5.16869295      -7.12871456
H        4.33519881       4.73383845      -6.25399688
N        5.53753071       6.14402006      -7.12649326
C        5.63703103       6.48867973      -8.41847752
C        4.78166728       5.70404732      -9.22700225
C        6.54439957       7.58925273      -8.88016127
C        7.35273256       8.32777185      -8.03635943
C        8.09154420       9.33112438      -8.73463400
C        7.81185462       9.30271765     -10.07709619
Br       8.57900323      10.47622341     -11.31905893
S        6.69813028       8.10077432     -10.50583985
C        1.59150904       1.80611793      -3.17203025
H        2.94745211       2.55996550      -0.13339155
H        4.37658107       3.98835795      -1.56271644
H        4.04400808       4.03204594      -4.00765684
H        1.38319502       1.93243788      -5.80124307
H        1.82157424       2.51392662      -7.83749093
H        4.64290897       5.74952313     -10.29869483
H        7.40381069       8.16064466      -6.96640254
H        8.77762402      10.02542088      -8.26577825
H        0.81069722       1.19216893      -3.61252008
C       -1.79196956      -1.79196956      -1.79196956
C       -1.69203618      -1.69975598      -3.17980597
C       -2.49663792      -2.50486641      -3.98690842
C       -3.39677612      -3.39998405      -3.40559659
C       -3.48979848      -3.48833605      -2.01305608
C       -4.42234115      -4.43261830      -1.36458083
N       -5.21635603      -5.20403924      -2.04191852
N       -5.99592226      -6.02233074      -1.26816279
C       -6.94890046      -6.91004497      -1.74534883
O       -7.56914190      -7.59241743      -0.92931906
C       -7.18292596      -6.98808896      -3.16403067
N       -6.51387441      -6.28009136      -4.11792477
H       -5.76689546      -5.61433356      -3.94180512
N       -6.92621506      -6.50604727      -5.37578169
C       -7.91357869      -7.40134584      -5.22926376
C       -8.09766792      -7.74545658      -3.86959235
C       -8.69841931      -7.91777346      -6.39762081
C       -8.47494900      -7.53496782      -7.70694702
C       -9.38409893      -8.15713746      -8.61606618
C      -10.25176966      -8.98697410      -7.95292471
Br     -11.59931741      -9.96962210      -8.80534606
S       -9.98863472      -9.03568555      -6.28042418
C       -2.68721304      -2.68248405      -1.19996013
H       -0.99263510      -1.00677820      -3.64139586
H       -2.42133912      -2.43629294      -5.07002339
H       -4.01364422      -4.02122302      -4.04884362
H       -4.40880429      -4.44944046      -0.25863122
H       -5.90064196      -6.01501688      -0.25733296
H       -8.81266536      -8.43570227      -3.44275930
H       -7.70037398      -6.83390194      -7.99658196
H       -9.39079110      -7.99182323      -9.68620883
H       -2.75383145      -2.74435315      -0.11720164
C       -1.79196956       1.79196956       1.79196956
C       -2.55136090       2.80784247       1.21239477
C       -3.35777965       3.61415842       2.01647469
C       -3.40424767       3.40236248       3.39574660
C       -2.64150359       2.38024526       3.96944177
C       -2.67585292       2.12055801       5.42312936
N       -3.38594773       2.83422098       6.24214510
N       -3.30349402       2.43359538       7.54932639
C       -3.93445672       3.05016763       8.61966991
O       -3.77742283       2.57058582       9.74286974
C       -4.73086308       4.22541978       8.37876274
N       -4.96360808       4.78896621       7.15931626
H       -4.60517851       4.44466079       6.27319485
N       -5.72091425       5.89750288       7.18962690
C       -5.98857593       6.06251195       8.49310041
C       -5.40730572       5.03413065       9.27128049
C       -6.79167784       7.22296450       8.99917124
C       -7.32779271       8.20350002       8.18557110
C       -8.02120934       9.20600055       8.93009269
C       -7.98222611       8.93530930      10.27413306
Br      -8.77143800      10.02940945      11.57343812
S       -7.14495596       7.51132640      10.64846208
C       -1.83043296       1.57082217       3.16840209
H       -2.52283954       2.97903833       0.13893130
H       -3.95210908       4.40742108       1.56812531
H       -4.03953462       4.03763681       4.00653942
H       -2.05842746       1.27600495       5.78244356
H       -2.74909217       1.62149887       7.80240075
H       -5.44863865       4.89889704      10.34359125
H       -7.21900159       8.20494669       7.10690961
H       -8.50870201      10.06802601       8.49209513
H       -1.23409285       0.77502897       3.60626441
C        1.79196956      -1.79196956       1.79196956
C        1.65726854      -1.73554642       3.17878317
C        2.46182377      -2.54071673       3.98587225
C        3.39664608      -3.40019445       3.40551623
C        3.52445760      -3.45280738       2.01392563
C        4.49442684      -4.35904469       1.36606874
N        5.29063932      -5.12767123       2.04400325
N        6.10763070      -5.90856888       1.27021621
C        7.07021686      -6.78487276       1.74920464
O        7.72569661      -7.43265430       0.93252749
C        7.27265745      -6.89150705       3.17088108
N        6.56453972      -6.22257853       4.12477229
H        5.80610324      -5.57050932       3.94642159
N        6.95253167      -6.46898245       5.38652991
C        7.96431946      -7.33705260       5.24281622
C        8.18852753      -7.64393093       3.88025839
C        8.73369197      -7.86285920       6.41726241
C        8.47037693      -7.51702179       7.72946511
C        9.37262302      -8.13935301       8.64532655
C       10.27534809      -8.93238066       7.98393972
Br      11.62574899      -9.90332260       8.84521399
S       10.05282734      -8.94700728       6.30490982
C        2.72204049      -2.64670435       1.20091238
H        0.93074590      -1.07049772       3.63956554
H        2.35947123      -2.50001017       5.06817407
H        4.01299960      -4.02206560       4.04864566
H        4.50728533      -4.34956692       0.26002372
H        6.03597656      -5.87917772       0.25783752
H        8.92975540      -8.30671890       3.45465264
H        7.67256815      -6.84151857       8.01677116
H        9.35019232      -7.99972200       9.71890883
H        2.81554788      -2.68092285       0.11891551
C       -0.00445707       0.01189536      -1.78238275
H       -0.66409135       0.67374010      -2.43557963
H        0.65740317      -0.63156657      -2.45157240
C       -0.90989263      -0.90692880      -0.91072765
C        0.90977584       0.90977584      -0.90977584
C       -0.00465871       1.77757030       0.00794375
H       -0.66225468       2.44313916      -0.64384735
H        0.64322798       2.43503045       0.67728295
C       -1.78241447       0.00034974      -0.00472694
H       -2.45427497      -0.65498947       0.64260836
H       -2.43311707       0.67328779      -0.65473579
C       -0.91132561       0.90220522       0.91563759
C       -0.01476271      -0.02253852       1.78660255
H       -0.67934791      -0.69751639       2.42135241
H        0.63392994       0.61504881       2.47327442
C        0.01484550      -1.77751727      -0.01636693
H        0.67870853      -2.42144646      -0.68295456
H       -0.62264859      -2.45592969       0.64226336
C        1.78714474       0.01002794       0.00389507
H        2.44202412       0.67113390       0.66197326
H        2.45385902      -0.65136977      -0.64189061
C        0.91606151      -0.90478549       0.90901405
