173
Properties=species:S:1:pos:R:3 pbc="F F F"
C        0.00000000       0.00000000       0.00000000
C        4.17146019       5.17884957      -6.75279608
C        3.96111092       5.20601082      -5.23846647
N        4.95364018       4.41464881      -4.48843871
C        6.27707709       4.84195180      -4.63580211
O        6.56784082       5.95085488      -5.09520756
C        7.40063215       3.96000999      -4.14547021
C        6.98551026       2.56983458      -3.73800958
H        7.83672030       2.08555487      -3.24470416
S        5.66976782       2.72132736      -2.52386141
C        4.47346439       3.52350344      -3.51280878
N        3.19732832       3.34786198      -3.38968916
C        2.50573594       2.50523648      -2.50968780
C        2.78827317       2.33679146      -1.14926995
C        1.99863297       1.50528847      -0.34486249
C        0.87920867       0.87920867      -0.87920867
C        0.54386545       1.07990602      -2.21571598
C        1.35750255       1.88309121      -3.01959238
C        6.61713303       1.65780419      -4.91285875
O        7.01245783       1.89745562      -6.04903053
N        5.88478079       0.54669144      -4.52698853
C        5.49893655      -0.54776585      -5.31849647
C        6.05106021      -0.83197534      -6.56919717
C        5.62765715      -1.95515057      -7.28907461
C        4.64578071      -2.78979093      -6.76109896
Br       4.06520146      -4.29679987      -7.74039372
C        4.09054439      -2.51951444      -5.51357217
C        4.52460121      -1.40499507      -4.79125941
H        3.33597234       5.67801563      -7.25286983
H        4.23314125       4.15326964      -7.12379067
H        5.08401179       5.70001417      -7.05053913
H        2.94177191       4.85728126      -5.05082682
H        4.01004647       6.24064935      -4.87761223
H        8.14807717       3.91191148      -4.94654384
H        7.87286768       4.47951593      -3.30059023
H        3.61394485       2.86411483      -0.68026307
H        2.25805324       1.37235928       0.70154044
H       -0.35433116       0.63066900      -2.64211408
H        1.07902386       2.05332457      -4.05818093
H        5.48319461       0.58543568      -3.59380884
H        6.82860180      -0.21017208      -7.00347857
H        6.07413788      -2.16517635      -8.25791456
H        3.32168689      -3.16381690      -5.09606924
H        4.07469252      -1.20822512      -3.82033730
C       -6.65500652      -5.39465227      -4.05344705
C       -5.63972826      -4.32050342      -4.44535653
N       -4.29072895      -4.85095612      -4.71504262
C       -4.21928822      -5.76111762      -5.77442515
O       -5.12552656      -5.88394670      -6.60443000
C       -2.96135831      -6.57311662      -5.97163742
C       -1.96440712      -6.48383321      -4.84511409
H       -1.03359980      -6.96503582      -5.16834371
S       -1.60642811      -4.74592573      -4.56260274
C       -3.20277168      -4.20769553      -4.09930940
N       -3.42786296      -3.26361976      -3.24339674
C       -2.50830810      -2.50828119      -2.50407092
C       -1.32470994      -1.94962923      -2.99999541
C       -0.49911444      -1.16488416      -2.18478533
C       -0.87920867      -0.87920867      -0.87920867
C       -2.08224972      -1.37444031      -0.38279741
C       -2.88249414      -2.18564059      -1.19205141
C       -2.39046533      -7.22424007      -3.57309057
O       -3.23061428      -8.11715682      -3.61117289
N       -1.68183456      -6.82539761      -2.45122859
C       -1.72505371      -7.38226938      -1.16234408
C       -2.28122245      -8.63075801      -0.87630159
C       -2.26743819      -9.12663269       0.43248968
C       -1.70425302      -8.36969292       1.45685721
Br      -1.69961711      -9.03402924       3.22485104
C       -1.14302357      -7.12544352       1.18386497
C       -1.14631302      -6.63869876      -0.12585377
H       -7.59452292      -4.92405314      -3.74828174
H       -6.28656681      -6.00086126      -3.22277349
H       -6.88480141      -6.06576536      -4.88399832
H       -5.62903992      -3.58127644      -3.63956362
H       -5.98455560      -3.79783879      -5.34591366
H       -3.26853470      -7.61495407      -6.12304371
H       -2.50450950      -6.23631257      -6.91215176
H       -1.02939901      -2.09363915      -4.03528460
H        0.42717910      -0.76689671      -2.58915447
H       -2.41751757      -1.12631018       0.62537583
H       -3.83185821      -2.55277517      -0.80589598
H       -1.15903969      -5.95850170      -2.54489774
H       -2.71538802      -9.25281686      -1.65370340
H       -2.69818371     -10.10407754       0.63538516
H       -0.70464114      -6.52721810       1.97792001
H       -0.70719736      -5.66187441      -0.31773293
C       -6.84069213       4.88674080       4.37567291
C       -5.56638602       4.11622151       4.72298068
N       -4.33639065       4.91995676       4.60038029
C       -4.27712271       6.03396664       5.44374164
O       -5.02895310       6.17104122       6.41390894
C       -3.20762415       7.07679462       5.22169358
C       -2.42772928       6.92434612       3.94127901
H       -1.57968468       7.61898659       3.96830806
S       -1.76103958       5.25644633       3.89747067
C       -3.26096573       4.36046443       3.88834646
N       -3.42499529       3.23052759       3.27935658
C       -2.50904434       2.50737490       2.50424097
C       -1.16515920       2.28398603       2.82518935
C       -0.34649267       1.49987082       2.00242044
C       -0.87920867       0.87920867       0.87920867
C       -2.22828255       1.03814299       0.57306191
C       -3.02929530       1.85084505       1.38004579
C       -3.21846316       7.28886278       2.68047003
O       -4.21036659       8.00796751       2.74060988
N       -2.64853333       6.78944335       1.52048408
C       -3.03501799       7.04101753       0.19363164
C       -3.88692358       8.08214123      -0.18078276
C       -4.20905340       8.28081796      -1.52829017
C       -3.68513854       7.43268218      -2.50073199
Br      -4.13254759       7.69331216      -4.31706444
C       -2.83156282       6.39372393      -2.14068464
C       -2.50114035       6.20585729      -0.79613208
H       -7.69621323       4.20463321       4.36601136
H       -6.76190637       5.35593549       3.39235970
H       -7.05978780       5.66927765       5.10549964
H       -5.53892561       3.23516130       4.07579307
H       -5.62813307       3.74641077       5.75376420
H       -3.69939725       8.05660803       5.25052721
H       -2.53178051       7.03453473       6.08665860
H       -0.73091385       2.69578490       3.73162401
H        0.69969112       1.36621335       2.26234984
H       -2.67388109       0.52509630      -0.28052548
H       -4.08785309       1.95471379       1.14796248
H       -1.94410050       6.06798321       1.65035542
H       -4.30121800       8.77036807       0.55032222
H       -4.86782884       9.10124306      -1.80219581
H       -2.42123599       5.72557286      -2.89286961
H       -1.83638340       5.38513520      -0.53471391
C        4.14494524      -5.22328788       6.73487273
C        3.96092567      -5.22778038       5.21688216
N        4.95222398      -4.40674581       4.49775791
C        6.28016507      -4.81393152       4.66073441
O        6.58223471      -5.92551563       5.10615292
C        7.39645674      -3.90461251       4.20504310
C        6.96430618      -2.51485783       3.81419041
H        7.81527559      -2.00767140       3.34403235
S        5.67226096      -2.66767799       2.57501763
C        4.47336604      -3.50713535       3.52927523
N        3.19666024      -3.35115123       3.38706798
C        2.50565996      -2.50530511       2.50969514
C        2.80836947      -2.30852007       1.15744504
C        2.01825533      -1.47677352       0.35375508
C        0.87920867      -0.87920867       0.87920867
C        0.52467503      -1.10872170       2.20609071
C        1.33829728      -1.91174083       3.01014804
C        6.56021805      -1.62973286       4.99784506
O        6.94022450      -1.88226950       6.13644999
N        5.81539933      -0.52473665       4.61832477
C        5.39721808       0.54910728       5.42155636
C        5.92294731       0.82096311       6.68629785
C        5.46794087       1.92411808       7.41775840
C        4.48088382       2.75093560       6.88714051
Br       3.85767638       4.23063757       7.88175650
C        3.95174733       2.49290062       5.62575541
C        4.41729585       1.39862265       4.89219235
H        3.30983607      -5.74520573       7.21181600
H        4.18251433      -4.20338959       7.12429765
H        5.06118728      -5.73391313       7.03946468
H        2.93904050      -4.89326653       5.01757295
H        4.03392477      -6.25502595       4.83935732
H        8.12920102      -3.85767835       5.01965311
H        7.89194877      -4.40127825       3.35974682
H        3.65092571      -2.81349413       0.69390292
H        2.29312091      -1.32132964      -0.68557848
H       -0.38830559      -0.68230797       2.62444954
H        1.04515851      -2.10466708       4.04070376
H        5.43050007      -0.55413809       3.67780097
H        6.70363737       0.20506273       7.12333365
H        5.89414555       2.12489725       8.39762779
H        3.17906305       3.13115072       5.20602691
H        3.98746997       1.21107309       3.91040782
