194
Properties=species:S:1:pos:R:3 pbc="F F F"
C        1.79247825       1.79247825      -1.79247825
C        1.26250360       2.95315196      -2.34905754
C        2.06171102       3.74434852      -3.16893228
C        3.38649214       3.37303407      -3.40823319
O        4.07059092       4.09409385      -4.34780000
C        3.95521017       2.22910585      -2.82209471
C        3.12156946       1.42669293      -2.02719168
N        5.32277096       1.88833219      -3.01555012
C        5.82345811       0.60458904      -2.95736490
O        5.28204906      -0.46894889      -2.76926275
C        7.26128276       0.69914970      -3.19886149
C        8.21709236      -0.30229364      -3.26384767
C        9.51127661       0.14054882      -3.49476664
C       10.75372870      -0.61333416      -3.60754624
O       10.72054995      -1.82590116      -3.50618228
N       11.78721710       0.28636865      -3.82507018
C       13.17874066      -0.07656539      -3.97327723
C       13.55707715      -1.43371932      -3.84066234
C       14.88507997      -1.86546752      -3.96729228
C       15.89791460      -0.96262742      -4.23113145
C       15.56919461       0.37747734      -4.36964230
C       14.23920867       0.81927077      -4.24506223
O       14.15838269       2.17045320      -4.43307490
C       11.26523144       1.56174925      -3.86173955
O       11.79585239       2.64595852      -4.02606070
C        9.82531038       1.48018576      -3.64906157
C        8.87103010       2.48508004      -3.58043749
C        7.57565836       2.04593658      -3.35293929
C        6.34199255       2.80794104      -3.16890831
O        6.37099714       4.02127831      -3.04999599
H        0.22753569       3.23364742      -2.17171516
H        1.63866370       4.62142342      -3.65087276
H        4.14152079       5.00467192      -4.00842114
H        3.50045927       0.52485858      -1.55311867
H        7.97333346      -1.35102402      -3.13547637
H       12.83170889      -2.21110364      -3.62722619
H       16.93082415      -1.28257289      -4.33073261
H       16.35479429       1.10161759      -4.57952539
H       13.25290382       2.50509093      -4.28972863
H        9.11890408       3.53550920      -3.68603689
C       15.20106365      -3.26265448      -3.82024499
C       15.46569999      -4.43279856      -3.69709289
Br      15.89359456      -6.32482257      -3.49796635
C       -1.79247825      -1.79247825      -1.79247825
C       -1.44368082      -3.12460525      -1.99642704
C       -2.23734809      -3.92076478      -2.81687896
C       -3.37953864      -3.37846802      -3.40975273
O       -4.02557715      -4.15511394      -4.33179367
C       -3.77454483      -2.04873816      -3.18312773
C       -2.94086519      -1.25366846      -2.38092043
N       -4.97284918      -1.51767393      -3.73613016
C       -5.17568391      -0.18450083      -4.02522731
O       -4.45115769       0.78745323      -3.91865847
C       -6.52995388      -0.06833302      -4.56100706
C       -7.20944722       1.04948097      -5.01868015
C       -8.50599624       0.80843934      -5.44903517
C       -9.50670397       1.73047134      -5.97170814
O       -9.22204387       2.90832712      -6.08711433
N      -10.65823728       1.00764404      -6.24806269
C      -11.88273736       1.57439819      -6.76711333
C      -11.96547957       2.97233479      -6.97087540
C      -13.11766823       3.59829542      -7.46753192
C      -14.24172538       2.85835680      -7.78305004
C      -14.20161427       1.48442598      -7.59912596
C      -13.04940202       0.84802747      -7.10216711
O      -13.24018390      -0.50263056      -7.01909634
C      -10.43703742      -0.31656986      -5.93511297
O      -11.15793260      -1.29537941      -6.01455961
C       -9.07844127      -0.45201155      -5.42410490
C       -8.40184422      -1.57203907      -4.96266434
C       -7.10436518      -1.33552037      -4.53464868
C       -6.12680979      -2.24779638      -3.94423573
O       -6.44759189      -3.37786770      -3.61681185
H       -0.54747171      -3.54123416      -1.54419239
H       -1.94103839      -4.94521872      -3.02470278
H       -4.35875810      -4.93832779      -3.85752795
H       -3.18792230      -0.21527203      -2.17524219
H       -6.76467873       2.03829448      -5.03140156
H      -11.13563592       3.63298860      -6.74518411
H      -15.14123612       3.32978300      -8.16753075
H      -15.07787046       0.88647835      -7.84454515
H      -12.47392523      -0.95523065      -6.61856751
H       -8.85506317      -2.55663871      -4.92874829
C      -13.13436056       5.02649014      -7.65078374
C      -13.14834038       6.22260321      -7.80425714
Br     -13.17094458       8.15661688      -8.05241064
C       -1.79247825       1.79247825       1.79247825
C       -3.17694835       1.66544510       1.72231966
C       -3.97904973       2.48428646       2.51165564
C       -3.38533807       3.40864528       3.37377604
O       -4.21868651       4.29491783       3.99888043
C       -1.98959690       3.52397848       3.49283535
C       -1.19997008       2.71335891       2.66212509
N       -1.38737510       4.42080644       4.41847173
C       -0.13992953       4.98684674       4.25863578
O        0.68178728       4.89883726       3.36531294
C        0.09767776       5.82660877       5.43036295
C        1.18807559       6.62225739       5.74446460
C        1.09714253       7.28283487       6.96089973
C        2.04421495       8.17745275       7.61470297
O        3.09319361       8.43881196       7.05521272
N        1.50055819       8.56988642       8.82932771
C        2.14938526       9.44666454       9.77817322
C        3.45613058       9.91576088       9.50438987
C        4.15345546      10.76559749      10.37476270
C        3.57955972      11.18617354      11.55980481
C        2.29909411      10.75007428      11.86533409
C        1.59184548       9.89803582      10.99735133
O        0.35306055       9.61484009      11.50013125
C        0.26371683       7.97851152       8.97392555
O       -0.55909770       8.03849580       9.87027811
C        0.00128171       7.15795397       7.79788546
C       -1.08985407       6.35895004       7.48774352
C       -1.00394716       5.69957454       6.27101252
C       -1.92215477       4.74714979       5.64953735
O       -2.87092515       4.29980628       6.27154001
H       -3.63722904       0.95417738       1.04149184
H       -5.06040060       2.42903446       2.42152483
H       -4.80012883       3.77324452       4.58124050
H       -0.11476218       2.76208783       2.70158651
H        2.05010101       6.71465750       5.09322932
H        3.98763293       9.63309883       8.60236553
H        4.10817995      11.84336780      12.24379603
H        1.83161860      11.07355356      12.79400231
H       -0.12957286       8.97582487      10.94232566
H       -1.94151645       6.24894788       8.14998584
C        5.48171735      11.20567957      10.03469194
C        6.59413668      11.57424831       9.74988269
Br       8.39282466      12.17019279       9.28937021
C        1.79247825      -1.79247825       1.79247825
C        3.17504057      -1.63454270       1.75512984
C        3.97777703      -2.45309900       2.54411579
C        3.38609024      -3.40838333       3.37328582
O        4.22501616      -4.29010745       3.99736116
C        1.99096814      -3.55592632       3.45951626
C        1.20175880      -2.74442395       2.62927133
N        1.38882656      -4.48525330       4.35257341
C        0.15765281      -5.07408320       4.15367604
O       -0.64660216      -4.98417905       3.24478603
C       -0.08651494      -5.94396427       5.30184463
C       -1.16580240      -6.76925317       5.57519563
C       -1.08642488      -7.45401823       6.77899872
C       -2.02752595      -8.38256306       7.39290367
O       -3.05844597      -8.65395056       6.80532648
N       -1.50142071      -8.78964297       8.61043368
C       -2.15107509      -9.70042452       9.52610307
C       -3.44120445     -10.19114065       9.21408396
C       -4.13825100     -11.07431954      10.05083618
C       -3.58068039     -11.50824321      11.23885579
C       -2.31677673     -11.05175734      11.58133365
C       -1.60990967     -10.16621854      10.74723280
O       -0.38853970      -9.86773691      11.28271358
C       -0.28107266      -8.17538462       8.79440827
O        0.52360628      -8.23731900       9.70694633
C       -0.01157965      -7.32407757       7.64205980
C        1.06828835      -6.49550523       7.37275405
C        0.99396706      -5.81182830       6.16873887
C        1.90427347      -4.82681936       5.58774908
O        2.82966196      -4.37302220       6.23958727
H        3.63413264      -0.89902651       1.09973912
H        5.05934425      -2.37292255       2.47869309
H        4.78247446      -3.76896385       4.60317553
H        0.11727196      -2.81706158       2.64410297
H       -2.01157540      -6.86579151       4.90356970
H       -3.95942277      -9.90031425       8.30693995
H       -4.10932239     -12.19123272      11.89707355
H       -1.86223545     -11.38532229      12.51285042
H        0.09184867      -9.20663714      10.74923758
H        1.90308666      -6.38183245       8.05553106
C       -5.44910789     -11.53505227       9.67270978
C       -6.54695053     -11.92091592       9.35602892
Br      -8.32206924     -12.54482482       8.84398276
C       -0.00445707       0.01189536      -1.78238275
H       -0.66409135       0.67374010      -2.43557963
H        0.65740317      -0.63156657      -2.45157240
C       -0.90989263      -0.90692880      -0.91072765
C        0.90977584       0.90977584      -0.90977584
C       -0.00465871       1.77757030       0.00794375
H       -0.66225468       2.44313916      -0.64384735
H        0.64322798       2.43503045       0.67728295
C       -1.78241447       0.00034974      -0.00472694
H       -2.45427497      -0.65498947       0.64260836
H       -2.43311707       0.67328779      -0.65473579
C       -0.91132561       0.90220522       0.91563759
C       -0.01476271      -0.02253852       1.78660255
H       -0.67934791      -0.69751639       2.42135241
H        0.63392994       0.61504881       2.47327442
C        0.01484550      -1.77751727      -0.01636693
H        0.67870853      -2.42144646      -0.68295456
H       -0.62264859      -2.45592969       0.64226336
C        1.78714474       0.01002794       0.00389507
H        2.44202412       0.67113390       0.66197326
H        2.45385902      -0.65136977      -0.64189061
C        0.91606151      -0.90478549       0.90901405
