165
Properties=species:S:1:pos:R:3 pbc="F F F"
C        0.00000000       0.00000000       0.00000000
C        0.88257422       0.88257422      -0.88257422
C        0.35259958       2.04324794      -1.43915352
C        1.15180700       2.83444450      -2.25902826
C        2.47658811       2.46313004      -2.49832916
O        3.16068689       3.18418983      -3.43789597
C        3.04530614       1.31920182      -1.91219069
C        2.21166544       0.51678891      -1.11728766
N        4.41286694       0.97842817      -2.10564609
C        4.91355408      -0.30531498      -2.04746088
O        4.37214504      -1.37885291      -1.85935873
C        6.35137874      -0.21075432      -2.28895747
C        7.30718834      -1.21219766      -2.35394365
C        8.60137258      -0.76935520      -2.58486262
C        9.84382467      -1.52323819      -2.69764222
O        9.81064593      -2.73580519      -2.59627826
N       10.87731307      -0.62353537      -2.91516616
C       12.26883663      -0.98646941      -3.06337320
C       12.64717312      -2.34362335      -2.93075832
C       13.97517594      -2.77537154      -3.05738826
Br      14.39040475      -4.61139127      -2.86415590
C       14.98801057      -1.87253145      -3.32122742
C       14.65929059      -0.53242668      -3.45973828
C       13.32930464      -0.09063326      -3.33515820
O       13.24847867       1.26054918      -3.52317088
C       10.35532742       0.65184523      -2.95183552
O       10.88594837       1.73605450      -3.11615667
C        8.91540636       0.57028174      -2.73915755
C        7.96112608       1.57517601      -2.67053346
C        6.66575433       1.13603256      -2.44303526
C        5.43208853       1.89803701      -2.25900429
O        5.46109312       3.11137429      -2.14009196
H       -0.68236833       2.32374339      -1.26181113
H        0.72875968       3.71151940      -2.74096874
H        3.23161677       4.09476789      -3.09851712
H        2.59055524      -0.38504544      -0.64321464
H        7.06342944      -2.26092804      -2.22557235
H       11.92180487      -3.12100767      -2.71732216
H       16.02092013      -2.19247691      -3.42082859
H       15.44489026       0.19171357      -3.66962136
H       12.34299980       1.59518691      -3.37982461
H        8.20900006       2.62560517      -2.77613286
C       -0.88257422      -0.88257422      -0.88257422
C       -0.28996892      -1.80886940      -1.73616272
C       -1.09456245      -2.59694932      -2.55376798
C       -2.48307785      -2.46001951      -2.49494996
O       -3.21148764      -3.13801339      -3.43327166
C       -3.10456335      -1.56238866      -1.60974664
C       -2.27344604      -0.75258977      -0.81970620
N       -4.52039084      -1.47092029      -1.50563007
C       -5.20309253      -0.33828253      -1.11432490
O       -4.81846803       0.77533653      -0.80951935
C       -6.62502451      -0.67359540      -1.13096197
C       -7.72570636       0.11661570      -0.83984366
C       -8.94968035      -0.52876237      -0.93843729
C      -10.29631727      -0.02652710      -0.69538434
O      -10.44281508       1.13548799      -0.36379191
N      -11.19085243      -1.06430774      -0.91378369
C      -12.62455077      -0.96355227      -0.75763738
C      -13.18633535       0.25197748      -0.29995022
C      -14.56564852       0.42823837      -0.11978251
Br     -15.22955494       2.08944290       0.49694266
C      -15.44883659      -0.60091919      -0.38695077
C      -14.93896556      -1.80878516      -0.83885146
C      -13.55649475      -1.99402920      -1.02330564
O      -13.29418398      -3.25336724      -1.48464750
C      -10.48469118      -2.18818652      -1.28613046
O      -10.85245230      -3.31388778      -1.57181946
C       -9.06428592      -1.86030458      -1.30025514
C       -7.96380008      -2.65474854      -1.58828693
C       -6.73874692      -2.01215172      -1.49392351
C       -5.38522646      -2.53563640      -1.66826697
O       -5.19114230      -3.73364223      -1.78777483
H        0.79132621      -1.90500184      -1.78951056
H       -0.63703698      -3.28241822      -3.26179261
H       -3.06404091      -4.08773640      -3.27312446
H       -2.69389391      -0.03319478      -0.12163576
H       -7.63650493       1.15735730      -0.54892611
H      -12.57040718       1.11145087      -0.05916305
H      -16.51927586      -0.47897815      -0.25101780
H      -15.62113164      -2.62924849      -1.05584507
H      -12.33588997      -3.42179472      -1.56032662
H       -8.05221172      -3.70167222      -1.85685415
C       -0.88257422       0.88257422       0.88257422
C       -1.91980424       0.30540451       1.60979228
C       -2.73493274       1.11376160       2.39658541
C       -2.49159682       2.48747155       2.45897895
O       -3.41951290       3.25065576       3.11260403
C       -1.42373339       3.08527072       1.76769454
C       -0.63592319       2.25721294       0.95260587
N       -1.13879546       4.47417866       1.88396707
C       -0.51707148       5.22796940       0.91065909
O       -0.11119411       4.94182078      -0.20036403
C       -0.40852643       6.58814255       1.43291290
C        0.11803682       7.72550862       0.84146253
C        0.07979751       8.86500472       1.63167279
C        0.54923929      10.21620456       1.35126343
O        1.05186731      10.45445015       0.26853616
N        0.29994250      11.00102931       2.46785705
C        0.63945767      12.40150639       2.58369170
C        1.32327257      13.03727429       1.52030637
C        1.69020614      14.39005708       1.55734172
Br       2.60364191      15.15800879       0.08880250
C        1.39277238      15.17143237       2.65804656
C        0.72193081      14.58683925       3.72169375
C        0.34917413      13.23045913       3.69254459
O       -0.30825998      12.88439884       4.83953990
C       -0.30475915      10.22262924       3.43161978
O       -0.69551783      10.48812972       4.55451200
C       -0.44438516       8.86727350       2.91318699
C       -0.96846906       7.72916949       3.50919700
C       -0.93489939       6.58885697       2.72106579
C       -1.34051390       5.21893593       3.02967999
O       -1.64524102       4.90056010       4.16675825
H       -2.11528120      -0.76206773       1.54997272
H       -3.57985898       0.67842318       2.92296565
H       -3.40968803       2.96969659       4.04551715
H        0.19940365       2.66152993       0.38659817
H        0.53576908       7.72299333      -0.15915050
H        1.60364970      12.50192215       0.61984692
H        1.67168155      16.22003095       2.70092240
H        0.47824227      15.18875231       4.59571516
H       -0.52081316      11.93224453       4.86495362
H       -1.36516516       7.72710782       4.51846512
C        0.88257422      -0.88257422       0.88257422
C        1.88645506      -0.29854263       1.65000335
C        2.70211379      -1.10618379       2.43698218
C        2.49230045      -2.48664510       2.45910177
O        3.42282830      -3.24296147       3.11698292
C        1.45743919      -3.09296578       1.72629368
C        0.66928216      -2.26424003       0.91221982
N        1.20510089      -4.49101613       1.80082418
C        0.62705310      -5.23500349       0.79364338
O        0.24169712      -4.93085663      -0.31990290
C        0.54020319      -6.61028384       1.27909485
C        0.05754054      -7.74495171       0.64644207
C        0.10513173      -8.90286650       1.40888177
C       -0.32272011     -10.25772326       1.08322556
O       -0.79213853     -10.48075735      -0.01749982
N       -0.08130918     -11.06425458       2.18599847
C       -0.38788541     -12.47520843       2.25841740
C       -1.02875205     -13.10049689       1.16256325
C       -1.36198847     -14.46246327       1.15671785
Br      -2.21892906     -15.21524591      -0.35314746
C       -1.07216476     -15.26395031       2.24492100
C       -0.44296905     -14.69013259       3.33943864
C       -0.10420009     -13.32462725       3.35340243
O        0.51559349     -12.99164280       4.52496243
C        0.47933809     -10.29585271       3.18381736
O        0.84876590     -10.58004086       4.30935278
C        0.59727711      -8.92471346       2.70285507
C        1.07733021      -7.78948545       3.34001989
C        1.03433343      -6.63069187       2.57979686
C        1.39722330      -5.25942467       2.93248187
O        1.66548171      -4.96259759       4.08448007
H        2.05615947       0.77462234       1.62164907
H        3.52239512      -0.66355593       2.99529676
H        3.38274462      -2.98613490       4.05602225
H       -0.14121206      -2.67462086       0.31531566
H       -0.33519042      -7.72735953      -0.36409536
H       -1.30024011     -12.54954478       0.26881469
H       -1.32530851     -16.31989086       2.25468945
H       -0.20579935     -15.30784107       4.20418348
H        0.70318176     -12.03546618       4.57936338
H        1.44870740      -7.80324497       4.35878572
