185
Properties=species:S:1:pos:R:3 pbc="F F F"
C        0.00000000       0.00000000       0.00000000
C        0.88206676       0.88206676      -0.88206676
C        1.69071966       0.29890711      -1.85433470
C        2.49830011       1.10834163      -2.65891950
C        2.49755567       2.50247499      -2.50579894
C        1.68822153       3.06824601      -1.51090482
C        0.87756679       2.26317671      -0.70472672
C        3.39290453       3.30687759      -3.35054108
C        3.16915546       4.57887021      -3.71740983
C        4.05510052       5.35622925      -4.53905185
N        3.80226122       6.65970128      -4.73438408
N        4.87816173       7.15793820      -5.61918829
C        5.75428969       6.06050935      -6.05135876
H        6.80410803       6.30661281      -5.84655471
C        5.34126535       4.89524658      -5.14190335
C        5.59397699       5.68728233      -7.52572738
C        4.37790965       5.85661312      -8.20634036
C        4.24804628       5.49004104      -9.54708527
C        5.33604762       4.93624133     -10.21618460
C        6.54979833       4.74470944      -9.55857860
C        6.67634375       5.11804526      -8.21835699
C        5.07957879       8.50507045      -5.94141811
C        4.15784347       9.46914756      -5.49073884
C        4.29057218      10.83353196      -5.78065618
C        5.36248758      11.28012151      -6.54296043
C        6.29668563      10.35807617      -7.00218837
C        6.15710163       8.99711800      -6.70085954
F        7.12318818       8.18573835      -7.16418200
H        1.70351442      -0.77742923      -1.99706823
H        3.12561322       0.64495790      -3.41743702
H        1.69001589       4.14437214      -1.35018452
H        0.25610532       2.72771020       0.05505467
H        4.29180368       2.80581051      -3.69611156
H        2.26812192       5.09935389      -3.40271287
H        5.23520329       3.94675166      -5.67941715
H        6.08511673       4.75617199      -4.34744446
H        3.53093709       6.28610119      -7.67077352
H        3.29696462       5.64378750     -10.04600055
H        7.40059509       4.31107642     -10.07409123
H        7.62457677       4.97232977      -7.70706894
H        3.31036809       9.13789236      -4.89429211
H        3.54890574      11.53100642      -5.40459092
H        5.47071676      12.33427010      -6.77375617
H        7.14596925      10.67717357      -7.59558985
C        5.20732671       4.55517177     -11.59886927
C        5.09952295       4.23602601     -12.75686769
Br       4.92521340       3.71999432     -14.62925319
C       -0.88206676      -0.88206676      -0.88206676
C       -0.46724471      -2.17158190      -1.20513485
C       -1.27556351      -2.97597525      -2.01402247
C       -2.50471121      -2.50394351      -2.49717488
C       -2.89649198      -1.19760014      -2.17328025
C       -2.09239459      -0.38972171      -1.36335391
C       -3.30044059      -3.37451699      -3.37536562
C       -4.63751104      -3.33666504      -3.49125942
C       -5.40326913      -4.18947156      -4.35764094
N       -6.72106149      -3.97753880      -4.49774629
N       -7.20604095      -5.01556891      -5.43367835
C       -6.13036743      -5.95384176      -5.78194861
H       -6.04069606      -6.04450753      -6.87207197
C       -4.86838082      -5.26452237      -5.24551209
C       -6.29949583      -7.34278625      -5.16470461
C       -6.96225659      -7.53621888      -3.94238767
C       -7.08736229      -8.81085027      -3.38696002
C       -6.53575051      -9.90510149      -4.04762155
C       -5.86057082      -9.73729538      -5.25522016
C       -5.74262268      -8.46047098      -5.80965234
C       -8.49660045      -5.05538396      -5.97408293
C       -9.45492137      -4.11720587      -5.54560262
C      -10.76725557      -4.10125136      -6.03625339
C      -11.16651782      -5.03797465      -6.98107705
C      -10.24651175      -5.97799795      -7.43244046
C       -8.93528588      -5.98047601      -6.93931728
F       -8.11046943      -6.90817985      -7.45445926
H        0.47675131      -2.56241140      -0.83749332
H       -0.94505659      -3.98285562      -2.26009592
H       -3.83105445      -0.79501295      -2.55850515
H       -2.42215890       0.61671263      -1.12331459
H       -2.73829284      -4.09893712      -3.95649579
H       -5.22787550      -2.63524840      -2.90706478
H       -4.19654329      -5.94874181      -4.71608699
H       -4.30907620      -4.80797199      -6.07168498
H       -7.38546042      -6.67129513      -3.43105625
H       -7.61452867      -8.92645565      -2.44576835
H       -5.42622168     -10.58604651      -5.77349456
H       -5.21952518      -8.33069912      -6.75375118
H       -9.16127172      -3.37715206      -4.80412878
H      -11.46230107      -3.35264651      -5.66955550
H      -12.18128356      -5.03370535      -7.36375412
H      -10.52760817      -6.71873045      -8.17239405
C       -6.66075382     -11.22199544      -3.47861849
C       -6.76544410     -12.32489413      -3.00207843
Br      -6.93471943     -14.10818803      -2.23155346
C       -0.88206676       0.88206676       0.88206676
C       -1.50640656       2.00097136       0.33658354
C       -2.31159345       2.80746044       1.14650735
C       -2.50658848       2.49861258       2.50062854
C       -1.85663903       1.37691445       3.03381888
C       -1.05160103       0.56626776       2.22760143
C       -3.33165452       3.39927065       3.31939804
C       -4.03418515       3.02920553       4.40204482
C       -4.83252838       3.92054221       5.19731103
N       -5.38541673       3.47484993       6.33607992
N       -6.13873998       4.61629164       6.90025660
C       -6.11128779       5.76733657       5.98753344
H       -5.77289113       6.66697500       6.51740942
C       -5.04297145       5.37922139       4.95622245
C       -7.45210832       6.04742670       5.30745168
C       -8.37627269       5.02530430       5.03928615
C       -9.58584834       5.30041214       4.39891211
C       -9.87506157       6.60501499       4.00839699
C       -8.96778640       7.63486452       4.25043544
C       -7.76100347       7.35541842       4.89632412
C       -6.73462842       4.62468611       8.16675282
C       -6.72079976       3.45169027       8.94523983
C       -7.30353996       3.38358540      10.21763495
C       -7.92864215       4.50136737      10.75556001
C       -7.95843306       5.68012769      10.01838941
C       -7.36701861       5.73826822       8.74979234
F       -7.42152177       6.92683239       8.12475438
H       -1.37678178       2.25701168      -0.71064005
H       -2.79730729       3.67863216       0.71206869
H       -1.96628985       1.13038521       4.08789749
H       -0.56383060      -0.29987616       2.66480641
H       -3.36308266       4.43498771       2.99565539
H       -4.03724435       1.99522631       4.73771803
H       -5.34271887       5.59387940       3.92477382
H       -4.10973958       5.91902410       5.15996949
H       -8.13677071       4.00644321       5.34459789
H      -10.28211337       4.48872376       4.21591555
H       -9.18648033       8.65326844       3.94601398
H       -7.05549682       8.15982019       5.08865847
H       -6.23784399       2.56523735       8.53947121
H       -7.26054800       2.45166549      10.77228959
H       -8.38423566       4.45580539      11.73870198
H       -8.43517644       6.56991645      10.41363977
C      -11.12072320       6.89426208       3.34638248
C      -12.16396482       7.13650652       2.79194533
Br     -13.85079828       7.52819529       1.89546734
C        0.88206676      -0.88206676       0.88206676
C        2.22284161      -0.55424374       1.06687612
C        3.02821379      -1.36422383       1.87312362
C        2.50043684      -2.49875961       2.50663315
C        1.15246214      -2.81988284       2.29502738
C        0.34244292      -2.01215204       1.49087526
C        3.39746752      -3.33939269       3.31346299
C        3.01559680      -4.09258741       4.35725129
C        3.90145504      -4.91444156       5.13448503
N        3.39428707      -5.73115465       6.07090486
N        4.55122976      -6.41795498       6.68610347
C        5.81700650      -5.89812781       6.15102349
H        6.44584882      -6.72186076       5.78956597
C        5.37586862      -5.05735997       4.94518670
C        6.60699641      -5.05069815       7.14929214
C        5.97301316      -4.30915167       8.15869830
C        6.71247194      -3.52595138       9.04674927
C        8.09786157      -3.46846571       8.92214627
C        8.74953851      -4.18412954       7.91941831
C        8.00562061      -4.97064127       7.03648412
C        4.45253288      -7.47342918       7.60010529
C        3.18375545      -7.87065010       8.06332432
C        3.00860265      -8.91278968       8.98336798
C        4.11278302      -9.59626352       9.47652298
C        5.38248178      -9.23578943       9.03867896
C        5.54504140      -8.19625729       8.11378048
F        6.80650594      -7.93790636       7.72869623
H        2.65306488       0.32289238       0.59298091
H        4.07413787      -1.09998269       2.01388757
H        0.72396232      -3.71046586       2.75014437
H       -0.69997125      -2.28085067       1.34788143
H        4.44407772      -3.32407259       3.02557544
H        1.97779822      -4.11203752       4.68035294
H        5.88583602      -4.08977828       4.88575779
H        5.57086515      -5.60387417       4.01399386
H        4.88711970      -4.35732114       8.24337096
H        6.19181600      -2.97324196       9.82169471
H        9.82890754      -4.14118985       7.81566535
H        8.51481759      -5.53201484       6.25714305
H        2.30718196      -7.34529645       7.69007415
H        2.00539719      -9.17572178       9.30338411
H        3.98555301     -10.40233783      10.19085218
H        6.26269685      -9.75361856       9.40241725
C        8.86547250      -2.66121457       9.83468068
C        9.50834666      -1.98514175      10.59892825
Br      10.54781980      -0.89198917      11.83465194
