138
Properties=species:S:1:pos:R:3 pbc="F F F"
C        1.79216198       1.79216198      -1.79216198
C        1.20591694       2.65430357      -2.71481883
C        2.01741769       3.46166134      -3.51814515
C        3.41420147       3.41745003      -3.40880110
C        4.30844533       4.25568373      -4.22430424
H        5.36919031       4.19184728      -3.99837457
N        3.81570001       5.05216139      -5.18516327
N        4.83175490       5.71320161      -5.74806987
C        4.44452245       6.46131198      -6.73039533
C        5.40255743       7.28457417      -7.49482699
C        4.94304414       8.04458655      -8.57387502
C        5.84310493       8.82425384      -9.30528585
C        7.19327571       8.83825504      -8.95046245
C        7.65595038       8.08310735      -7.87312094
C        6.75620211       7.30379860      -7.14472882
C        3.98169334       2.54106519      -2.47287965
C        3.17782773       1.72989991      -1.66633236
H        0.12808391       2.71448507      -2.82359815
H        1.56149664       4.13817658      -4.23762033
H        3.38354370       6.51555176      -7.04089682
H        3.89137558       8.02763817      -8.84514832
H        5.48220876       9.41105710     -10.14443289
H        8.70336181       8.08779196      -7.58920149
H        7.09262688       6.70400199      -6.29956711
H        5.06268929       2.49211140      -2.37422906
H        3.64569356       1.06193251      -0.95123576
C        8.11872442       9.64151500      -9.70671514
C        8.89378771      10.31424521     -10.34007677
Br      10.14699951      11.40199306     -11.36416896
C       -1.79216198      -1.79216198      -1.79216198
C       -1.37049731      -3.07551125      -2.12903079
C       -2.18258499      -3.88012387      -2.93451532
C       -3.41697876      -3.41488778      -3.40858606
C       -4.31044784      -4.22869291      -4.24929256
H       -5.27496096      -3.79186262      -4.49258858
N       -3.93390109      -5.44421138      -4.67491220
N       -4.93245099      -5.96875426      -5.39182112
C       -4.62302557      -7.12160068      -5.89160351
C       -5.58033000      -7.88443129      -6.71719730
C       -5.18590161      -9.10611862      -7.26948549
C       -6.08413178      -9.83351748      -8.05499538
C       -7.36827615      -9.33399137      -8.27972569
C       -7.76694473      -8.11637487      -7.72885907
C       -6.86830360      -7.39040915      -6.94601679
C       -3.82018610      -2.11892227      -3.05652981
C       -3.01414149      -1.30759948      -2.25231903
H       -0.42168911      -3.46705989      -1.77741814
H       -1.85653654      -4.88422635      -3.19653065
H       -3.63129294      -7.58386117      -5.72483818
H       -4.18464888      -9.48788270      -7.09163049
H       -5.77260184     -10.78085500      -8.48424190
H       -8.76304364      -7.71999949      -7.89731212
H       -7.15488477      -6.43601077      -6.50530044
H       -4.77346726      -1.74037342      -3.41518907
H       -3.35285274      -0.30944920      -1.99655990
C       -8.29132723     -10.08498945      -9.09063788
C       -9.06438251     -10.71395034      -9.76977684
Br     -10.31434752     -11.73092691     -10.86788710
C       -1.79216198       1.79216198       1.79216198
C       -3.12333252       1.44526619       2.00644063
C       -3.92605776       2.25440293       2.81676350
C       -3.41100928       3.41091470       3.41852862
C       -4.21371364       4.28702766       4.28769200
H       -3.68752710       5.11183165       4.76005341
N       -5.52194142       4.05543255       4.47565070
N       -5.99696782       4.97656308       5.31949548
C       -7.27204478       4.85824593       5.50593905
C       -8.00628801       5.77085381       6.40481677
C       -9.38987408       5.62955522       6.54207642
C      -10.09368539       6.49090608       7.38805316
C       -9.40803039       7.48403667       8.08992615
C       -8.02710618       7.62737253       7.95769996
C       -7.32593563       6.76749882       7.11129508
C       -2.06772994       3.74014654       3.18776170
C       -1.25839978       2.93721742       2.37844280
H       -3.55293143       0.55594985       1.55728586
H       -4.96557406       1.98372425       2.98799524
H       -7.86625578       4.07281885       5.00091765
H       -9.91695767       4.85551054       5.99169386
H      -11.16884047       6.37921978       7.48963850
H       -7.48512523       8.39581612       8.49941391
H       -6.24704742       6.85943928       6.98970928
H       -1.65074559       4.63333353       3.64495062
H       -0.22289625       3.21752660       2.21843899
C      -10.13598246       8.37105516       8.95991694
C      -10.74564232       9.11393314       9.68853423
Br     -11.73141075      10.31510401      10.86664676
C        1.79216198      -1.79216198       1.79216198
C        3.13724986      -1.47571843       1.96207106
C        3.94001154      -2.28465154       2.77256110
C        3.41121411      -3.41071772       3.41852077
C        4.21378326      -4.28503733       4.28961272
H        3.67906565      -5.08272109       4.79762541
N        5.53221484      -4.08388539       4.43692444
N        6.00547624      -4.99503626       5.29251387
C        7.28777119      -4.90622995       5.44222862
C        8.02177081      -5.81439773       6.34579005
C        9.41177695      -5.70683508       6.44289368
C       10.11528571      -6.56434934       7.29300958
C        9.42297750      -7.51993520       8.03908051
C        8.03571340      -7.62947340       7.94699187
C        7.33479331      -6.77351753       7.09641869
C        2.05404514      -3.70961601       3.23197702
C        1.24454755      -2.90668208       2.42283037
H        3.57776304      -0.61036048       1.47804362
H        4.99049533      -2.03765076       2.90914746
H        7.88855449      -4.15058173       4.90085606
H        9.94396123      -4.96194349       5.85825734
H       11.19534251      -6.47901288       7.36334335
H        7.48855577      -8.36859413       8.52320536
H        6.25098522      -6.83954574       7.00566502
H        1.62625240      -4.57897081       3.72380653
H        0.19812349      -3.16312032       2.29761803
C       10.15058359      -8.40311932       8.91325164
C       10.75995370      -9.14278603       9.64536996
Br      11.74525363     -10.33876454      10.82914337
C       -0.00445707       0.01189536      -1.78238275
H       -0.66409135       0.67374010      -2.43557963
H        0.65740317      -0.63156657      -2.45157240
C       -0.90989263      -0.90692880      -0.91072765
C        0.90977584       0.90977584      -0.90977584
C       -0.00465871       1.77757030       0.00794375
H       -0.66225468       2.44313916      -0.64384735
H        0.64322798       2.43503045       0.67728295
C       -1.78241447       0.00034974      -0.00472694
H       -2.45427497      -0.65498947       0.64260836
H       -2.43311707       0.67328779      -0.65473579
C       -0.91132561       0.90220522       0.91563759
C       -0.01476271      -0.02253852       1.78660255
H       -0.67934791      -0.69751639       2.42135241
H        0.63392994       0.61504881       2.47327442
C        0.01484550      -1.77751727      -0.01636693
H        0.67870853      -2.42144646      -0.68295456
H       -0.62264859      -2.45592969       0.64226336
C        1.78714474       0.01002794       0.00389507
H        2.44202412       0.67113390       0.66197326
H        2.45385902      -0.65136977      -0.64189061
C        0.91606151      -0.90478549       0.90901405
