153
Properties=species:S:1:pos:R:3 pbc="F F F"
C        0.00000000       0.00000000       0.00000000
C        0.88350735       0.88350735      -0.88350735
C        2.18915021       0.49957363      -1.15906448
C        2.98535731       1.30949758      -1.97584202
C        2.50715620       2.50639239      -2.53748015
C        1.18733480       2.86338947      -2.22325678
C        0.37515305       2.06618028      -1.40849382
N        3.21519760       3.33409486      -3.34303269
N        4.51066524       2.78128116      -3.80316853
C        5.27714738       3.53833870      -4.62031728
N        5.59489805       4.79878982      -4.44214044
N        4.97530252       5.32670763      -3.34055141
C        4.48531035       6.64161084      -3.46417135
C        3.38183486       7.04446796      -2.70493101
C        2.91890690       8.36254655      -2.74974244
C        3.58324642       9.29715107      -3.54356331
Br       2.96254806      11.08320956      -3.61119368
C        4.70352504       8.92782885      -4.28333537
C        5.15484011       7.60706545      -4.23068702
C        5.86910493       2.81371980      -5.79007587
C        5.22163380       1.71570564      -6.36781820
C        5.77360939       1.07231197      -7.47814931
C        6.98184724       1.52061839      -8.01504672
C        7.63471334       2.61500910      -7.44493157
C        7.07594335       3.26224490      -6.33982080
H        2.61178802      -0.41411330      -0.76205632
H        4.00912478       1.00944296      -2.19064585
H        0.79431018       3.78586636      -2.64383980
H       -0.63949379       2.38418929      -1.20621970
H        4.23604359       4.61388411      -3.06336369
H        2.87032628       6.29462904      -2.10155734
H        2.04426525       8.63333102      -2.16975029
H        5.23314489       9.64207039      -4.90327011
H        6.02961092       7.29703966      -4.79797442
H        4.27545812       1.38885926      -5.93774724
H        5.25094426       0.22778926      -7.91307878
H        7.41081686       1.01989722      -8.87535106
H        8.57452352       2.97142435      -7.85210254
H        7.57067055       4.11504302      -5.88486744
C       -0.88350735      -0.88350735      -0.88350735
C       -2.23899341      -0.60668442      -1.00211049
C       -3.03599592      -1.41464701      -1.82005397
C       -2.51020546      -2.50368720      -2.53713608
C       -1.13927463      -2.75587667      -2.37882975
C       -0.32550009      -1.95876552      -1.56556153
N       -3.21713087      -3.32160752      -3.35358676
N       -4.59578015      -2.85989490      -3.63943988
C       -5.36808586      -3.61250476      -4.45521273
N       -5.55277651      -4.90894624      -4.37410556
N       -4.78317367      -5.46979150      -3.38959639
C       -4.19208420      -6.71380755      -3.68520079
C       -2.98773215      -7.07251707      -3.07098461
C       -2.41543570      -8.32938895      -3.28637125
C       -3.06833302      -9.25001622      -4.10561156
Br      -2.30005590     -10.95316675      -4.40372864
C       -4.28442624      -8.92793704      -4.70232598
C       -4.84468252      -7.66796347      -4.47994658
C       -6.13458878      -2.84788968      -5.49042214
C       -5.64785377      -1.64429728      -6.01300659
C       -6.36162323      -0.96157136      -7.00087608
C       -7.57182908      -1.47665866      -7.46902462
C       -8.06498504      -2.67650798      -6.95316100
C       -7.34465101      -3.36190716      -5.97145088
H       -2.70056895       0.22184546      -0.48100754
H       -4.09863307      -1.19868320      -1.91189732
H       -0.70858098      -3.59392124      -2.92151412
H        0.72847134      -2.19230048      -1.48708606
H       -4.08697371      -4.71540901      -3.11090867
H       -2.48850755      -6.33300799      -2.44499712
H       -1.46732004      -8.56366175      -2.81636476
H       -4.80641305      -9.63246380      -5.33960855
H       -5.79518674      -7.39594635      -4.93349191
H       -4.69702438      -1.26580042      -5.63923982
H       -5.96187763      -0.03426292      -7.39567174
H       -8.12634553      -0.94560847      -8.23411114
H       -9.00460981      -3.08573369      -7.30770692
H       -7.71399798      -4.29646200      -5.56012102
C       -0.88350735       0.88350735       0.88350735
C       -0.42379805       2.12667781       1.29731246
C       -1.24323131       2.93072477       2.09674082
C       -2.52879050       2.52562210       2.49661614
C       -2.94881698       1.25776464       2.06739943
C       -2.14374808       0.43910303       1.26697603
N       -3.37975131       3.25283858       3.25973526
N       -2.95643068       4.65506545       3.48361880
C       -3.75416595       5.45508394       4.22655346
N       -4.27684286       5.16458426       5.39440118
N       -3.99534866       3.87767733       5.76953557
C       -5.03654635       3.16203147       6.39251472
C       -5.08866582       1.76939395       6.27317407
C       -6.06544301       1.02508356       6.94066932
C       -6.98645641       1.67821802       7.75928637
Br      -8.31289907       0.67859413       8.66545809
C       -6.93476395       3.06036323       7.91956207
C       -5.95448768       3.79238940       7.24571549
C       -3.97627493       6.82756153       3.66906415
C       -3.95083281       7.06436136       2.28996347
C       -4.19159689       8.34527170       1.78720208
C       -4.45425530       9.40045395       2.66280310
C       -4.48130169       9.17335903       4.03999331
C       -4.24888573       7.88936921       4.53975412
H        0.55341164       2.49694494       1.01619774
H       -0.88244397       3.90442177       2.42234785
H       -3.93873281       0.92033935       2.36494418
H       -2.52144592      -0.52633399       0.95580327
H       -3.60861932       3.40726339       4.89740868
H       -4.36707133       1.28117119       5.61827014
H       -6.09348715      -0.04968285       6.80354225
H       -7.64107957       3.58344864       8.55395718
H       -5.89357398       4.87253810       7.35851292
H       -3.75268234       6.22428770       1.62509459
H       -4.17327829       8.50376203       0.71477197
H       -4.63905276      10.39459235       2.27242003
H       -4.68262452       9.98530487       4.73012102
H       -4.26678427       7.69577206       5.60802468
C        0.88350735      -0.88350735       0.88350735
C        0.35300067      -2.02488535       1.46990229
C        1.17178153      -2.83101842       2.26789695
C        2.52566336      -2.52875326       2.49661212
C        3.01763234      -1.36019537       1.89615334
C        2.21436793      -0.54122751       1.09423171
N        3.37916963      -3.26571306       3.24744246
N        2.84909723      -4.58666695       3.65935075
C        3.64076670      -5.39193883       4.40309783
N        4.31057392      -5.04775268       5.47750171
N        4.19594390      -3.70805141       5.73856625
C        5.36170481      -3.05091491       6.17847281
C        5.53465808      -1.68978533       5.90679042
C        6.64417630      -0.99312298       6.39389661
C        7.58006213      -1.65889847       7.18500019
Br       9.08566306      -0.72389029       7.84739794
C        7.41290863      -3.00574833       7.49603231
C        6.30043303      -3.69049231       7.00166723
C        3.66893483      -6.82754758       3.97641819
C        3.47383634      -7.19197740       2.63934391
C        3.53512168      -8.53368937       2.25525963
C        3.78684962      -9.52162098       3.20904176
C        3.98239738      -9.16715045       4.54510619
C        3.92934995      -7.82357045       4.92508864
H       -0.67970893      -2.31413402       1.32530594
H        0.75571058      -3.72476596       2.72873705
H        4.06150634      -1.10322093       2.05928907
H        2.64791823       0.34393180       0.64692876
H        3.76549258      -3.28524806       4.86255075
H        4.79770510      -1.19271807       5.27608950
H        6.76079698       0.05429059       6.14084016
H        8.12919639      -3.53766138       8.11162762
H        6.14817029      -4.74206875       7.23438597
H        3.28771274      -6.40351027       1.91084161
H        3.38732819      -8.79185126       1.21263284
H        3.83235244     -10.56274587       2.91096683
H        4.17706353      -9.92568782       5.29529907
H        4.07966467      -7.53102190       5.95989444
