174
Properties=species:S:1:pos:R:3 pbc="F F F"
C        1.79341137       1.79341137      -1.79341137
C        3.09905423       1.40947766      -2.06896850
C        3.89526133       2.21940160      -2.88574604
C        3.41706023       3.41629641      -3.44738418
C        2.09723883       3.77329349      -3.13316080
C        1.28505708       2.97608430      -2.31839784
N        4.12510162       4.24399888      -4.25293671
N        5.42056926       3.69118519      -4.71307255
C        6.18705140       4.44824272      -5.53022130
N        6.50480207       5.70869384      -5.35204446
N        5.88520655       6.23661166      -4.25045543
C        5.39521437       7.55151486      -4.37407538
C        4.29173889       7.95437198      -3.61483504
C        3.82881092       9.27245058      -3.65964646
C        4.49315044      10.20705510      -4.45346734
Br       3.87245208      11.99311358      -4.52109770
C        5.61342907       9.83773287      -5.19323940
C        6.06474413       8.51696947      -5.14059104
C        6.77900895       3.72362382      -6.69997990
C        6.13153782       2.62560966      -7.27772223
C        6.68351342       1.98221599      -8.38805333
C        7.89175126       2.43052242      -8.92495074
C        8.54461737       3.52491313      -8.35483560
C        7.98584737       4.17214893      -7.24972483
H        3.52169205       0.49579072      -1.67196034
H        4.91902881       1.91934698      -3.10054988
H        1.70421420       4.69577038      -3.55374382
H        0.27041023       3.29409332      -2.11612372
H        5.14594762       5.52378814      -3.97326771
H        3.78023030       7.20453307      -3.01146136
H        2.95416927       9.54323504      -3.07965431
H        6.14304892      10.55197442      -5.81317413
H        6.93951494       8.20694369      -5.70787845
H        5.18536215       2.29876329      -6.84765126
H        6.16084828       1.13769328      -8.82298280
H        8.32072088       1.92980124      -9.78525509
H        9.48442755       3.88132837      -8.76200657
H        8.48057458       5.02494704      -6.79477146
C       -1.79341137      -1.79341137      -1.79341137
C       -1.21020524      -2.64576801      -2.72152714
C       -2.02647849      -3.45641793      -3.51751255
C       -3.42813993      -3.44400076      -3.40860013
C       -3.97642837      -2.55931101      -2.46795374
C       -3.17644662      -1.74082252      -1.66227007
N       -4.27947353      -4.20579603      -4.13676766
N       -3.62165504      -5.26240860      -4.94076336
C       -4.39946568      -6.07609796      -5.68995179
N       -5.35612714      -5.70281636      -6.50659689
N       -5.56141481      -4.34933200      -6.46152682
C       -6.90052256      -3.91439807      -6.50588398
C       -7.25851475      -2.70886804      -5.89356312
C       -8.56259059      -2.21408793      -5.98422944
C       -9.51539235      -2.91982083      -6.71845969
Br     -11.28337977      -2.25801608      -6.84526752
C       -9.17489647      -4.10567091      -7.36383396
C       -7.86854262      -4.58976348      -7.26399854
C       -4.05462036      -7.53192888      -5.61606343
C       -3.48480597      -8.08595710      -4.46410664
C       -3.19930333      -9.45202969      -4.40244973
C       -3.47735148     -10.27297996      -5.49689299
C       -4.04547499      -9.72874273      -6.65014837
C       -4.33821758      -8.36360480      -6.70589874
H       -0.13699932      -2.70554699      -2.84689680
H       -1.56956543      -4.12337850      -4.24598173
H       -5.05854845      -2.52942777      -2.36575219
H       -3.65158986      -1.08360987      -0.94542754
H       -5.02455447      -4.01033764      -5.60811135
H       -6.50127840      -2.18053247      -5.31441386
H       -8.81200736      -1.29084105      -5.47421021
H       -9.90229142      -4.66521089      -7.94069516
H       -7.57957008      -5.51242424      -7.76234276
H       -3.28469207      -7.42806059      -3.61902404
H       -2.76402440      -9.86027395      -3.49722602
H       -3.25384497     -11.33253152      -5.44940073
H       -4.26449614     -10.35602169      -7.50724465
H       -4.78055318      -7.92465030      -7.59508960
C       -1.79341137       1.79341137       1.79341137
C       -1.83838292       3.16395350       1.57516396
C       -2.65679444       3.96144489       2.38216965
C       -3.44667957       3.42165762       3.41240363
C       -3.36162642       2.03494793       3.60711876
C       -2.54913517       1.22045379       2.80995025
N       -4.26808405       4.12874604       4.22520713
N       -4.47029085       5.53845867       3.81607747
C       -5.28505339       6.31367238       4.56678965
N       -5.25640878       6.43636512       5.87276649
N       -4.33446699       5.59738587       6.44042078
C       -4.71390239       4.96584454       7.64105768
C       -4.17143431       3.71932833       7.97018326
C       -4.47058138       3.10222200       9.18810458
C       -5.30197491       3.75094428      10.10075368
Br      -5.71325800       2.92222347      11.75118190
C       -5.82816434       5.00672615       9.80951085
C       -5.52243132       5.61162928       8.58824404
C       -6.24821384       7.16101418       3.79338466
C       -6.73522173       6.75337871       2.54626927
C       -7.65731656       7.54223427       1.85423192
C       -8.09455846       8.74879790       2.40386807
C       -7.61379622       9.16332168       3.64724820
C       -6.69826553       8.36808359       4.34137201
H       -1.25909544       3.63719056       0.79315711
H       -2.69096559       5.03578532       2.21217475
H       -3.96151711       1.59311157       4.39909973
H       -2.52873787       0.15460141       2.99728799
H       -4.05219141       4.92327477       5.66753728
H       -3.53449244       3.22490263       7.23682967
H       -4.05478308       2.12369093       9.39858462
H       -6.47372912       5.52595425      10.50851409
H       -5.91993399       6.59345889       8.34094420
H       -6.38697301       5.80396457       2.14083912
H       -8.02582208       7.20311700       0.89258528
H       -8.80852023       9.36156577       1.86569122
H       -7.94479869      10.09928655       4.08367725
H       -6.31495452       8.67577047       5.30956809
C        1.79341137      -1.79341137       1.79341137
C        2.44726824      -1.24266109       2.88757106
C        3.24477294      -2.06108366       3.69455237
C        3.40669225      -3.43424008       3.43980848
C        2.73920193      -3.94701517       2.31747602
C        1.93662710      -3.14443146       1.49848066
N        4.15286086      -4.28812873       4.18104763
N        4.63994648      -3.72343116       5.46144937
C        5.38433664      -4.51257261       6.26860618
N        6.41603681      -5.23951152       5.90999206
N        6.62569519      -5.18921642       4.55736203
C        6.99123331      -6.39744241       3.93212889
C        6.65669049      -6.61302321       2.59123220
C        7.06995027      -7.76862935       1.92232835
C        7.85009573      -8.70926423       2.59431291
Br       8.41271179     -10.27705184       1.69689973
C        8.22310044      -8.50167321       3.91962769
C        7.80221740      -7.34328805       4.57679920
C        5.01675409      -4.46586582       7.71999276
C        3.70476239      -4.20115635       8.12895098
C        3.37449418      -4.19301512       9.48627344
C        4.35763527      -4.44454414      10.44504501
C        5.66901378      -4.70926388      10.04608844
C        5.99478161      -4.72553371       8.68740580
H        2.35600577      -0.19415131       3.13928603
H        3.75846218      -1.62923134       4.55123215
H        2.84986671      -5.00615486       2.09770685
H        1.43611295      -3.59395359       0.65056073
H        5.75073313      -4.73998986       4.15228047
H        6.03575840      -5.87092693       2.08953940
H        6.76924984      -7.91625622       0.89155257
H        8.83121893      -9.22112529       4.45585324
H        8.08420493      -7.15906924       5.61106291
H        2.95218640      -4.01652308       7.36306722
H        2.35017516      -3.99196847       9.77938073
H        4.10140164      -4.43617603      11.49819955
H        6.44166376      -4.90451603      10.78158269
H        7.00976672      -4.93014187       8.36038449
C       -0.00445707       0.01189536      -1.78238275
H       -0.66409135       0.67374010      -2.43557963
H        0.65740317      -0.63156657      -2.45157240
C       -0.90989263      -0.90692880      -0.91072765
C        0.90977584       0.90977584      -0.90977584
C       -0.00465871       1.77757030       0.00794375
H       -0.66225468       2.44313916      -0.64384735
H        0.64322798       2.43503045       0.67728295
C       -1.78241447       0.00034974      -0.00472694
H       -2.45427497      -0.65498947       0.64260836
H       -2.43311707       0.67328779      -0.65473579
C       -0.91132561       0.90220522       0.91563759
C       -0.01476271      -0.02253852       1.78660255
H       -0.67934791      -0.69751639       2.42135241
H        0.63392994       0.61504881       2.47327442
C        0.01484550      -1.77751727      -0.01636693
H        0.67870853      -2.42144646      -0.68295456
H       -0.62264859      -2.45592969       0.64226336
C        1.78714474       0.01002794       0.00389507
H        2.44202412       0.67113390       0.66197326
H        2.45385902      -0.65136977      -0.64189061
C        0.91606151      -0.90478549       0.90901405
