189
Properties=species:S:1:pos:R:3 pbc="F F F"
C        0.00000000       0.00000000       0.00000000
C        0.88395526       0.88395526      -0.88395526
C        0.30531477       1.92419603      -1.61261300
C        1.11094885       2.72708880      -2.41642215
C        2.48001777       2.47939431      -2.48049147
O        3.22704122       3.29915052      -3.28785790
C        3.08286156       1.43549453      -1.75366155
C        4.53159514       1.13756683      -1.79674303
H        4.87250570       0.29398106      -1.20059078
N        5.34137768       1.89992295      -2.56043506
C        6.73751140       1.45536363      -2.50653834
C        7.61025879       2.36218458      -3.39151304
C        9.07720613       1.91566858      -3.38648874
C        9.95437646       2.81813905      -4.26295519
C       11.41496766       2.35211008      -4.25549136
C       12.31579756       3.24091126      -5.13060895
N       13.69139094       2.74044215      -5.07476729
C       14.54347040       3.45179892      -5.83973560
H       14.25395445       4.31058805      -6.44117337
C       15.96998062       3.05786946      -5.88406021
C       16.84429604       3.78963037      -6.69760722
C       18.19807757       3.44761772      -6.76578700
Br      19.36335541       4.44860474      -7.87285641
C       18.70663285       2.37687047      -6.02917843
C       17.85183767       1.63898447      -5.21499669
C       16.50346081       1.98122333      -5.14924515
O       15.70590575       1.22016424      -4.33238530
C        2.25820749       0.63764703      -0.95018003
H       -0.76060812       2.11851404      -1.56439993
H        0.68987037       3.54240407      -2.99432556
H        4.15142886       2.93030810      -3.16783216
H        6.84780300       0.42016886      -2.85870093
H        7.13632885       1.48609184      -1.48295529
H        7.54239963       3.39910655      -3.03823872
H        7.23010564       2.35213735      -4.42111694
H        9.14425457       0.88153856      -3.74643612
H        9.45824419       1.92432855      -2.35784476
H        9.89644707       3.85084453      -3.89913845
H        9.57305056       2.81397893      -5.29094418
H       11.46653819       1.31443527      -4.61110650
H       11.79043650       2.35053171      -3.22357619
H       12.24250078       4.27476205      -4.76668688
H       11.91815902       3.23487006      -6.15461633
H       16.45904922       4.62429161      -7.27523304
H       19.75671423       2.11041872      -6.08129942
H       18.21722975       0.80163028      -4.63114336
H       14.80691695       1.64605512      -4.45690915
H        2.69851725      -0.17453394      -0.37960349
C       -0.88395526      -0.88395526      -0.88395526
C       -0.30687969      -1.93059072      -1.60465339
C       -1.11250923      -2.73347457      -2.40847600
C       -2.48001238      -2.47939666      -2.48049451
O       -3.22709826      -3.29944809      -3.28750329
C       -3.08126370      -1.42899274      -1.76176120
C       -4.52828517      -1.12418940      -1.81343043
H       -4.86795543      -0.27602054      -1.22310157
N       -5.33806003      -1.88631983      -2.57735583
C       -6.73223620      -1.43466873      -2.53250843
C       -7.60509140      -2.34154904      -3.41731597
C       -9.06983051      -1.88783503      -3.42169791
C       -9.94712880      -2.79030143      -4.29804048
C      -11.40542785      -2.31709404      -4.30004721
C      -12.30632448      -3.20576897      -5.17522432
N      -13.67969517      -2.69830045      -5.12860476
C      -14.53150869      -3.40923190      -5.89426433
H      -14.24328073      -4.27237807      -6.49005706
C      -15.95582878      -3.00854406      -5.94753744
C      -16.82974024      -3.74000934      -6.76178405
C      -18.18147208      -3.39171064      -6.83829957
Br     -19.34622644      -4.39241515      -7.94617497
C      -18.68835292      -2.31487354      -6.10945529
C      -17.83393420      -1.57718460      -5.29470004
C      -16.48759613      -1.92569498      -5.22063818
O      -15.69031522      -1.16454001      -4.40360006
C       -2.25663787      -0.63124879      -0.95814788
H        0.75782508      -2.12988688      -1.55024404
H       -0.69262321      -3.55367641      -2.98030038
H       -4.15023621      -2.92549688      -3.17383602
H       -6.83570592      -0.40069191      -2.89027495
H       -7.13620803      -1.45840564      -1.51076231
H       -7.54406704      -3.37703975      -3.05863812
H       -7.21985572      -2.33843083      -4.44507338
H       -9.13002524      -0.85517302      -3.78703100
H       -9.45593957      -1.88956640      -2.39491153
H       -9.89606485      -3.82147523      -3.92888996
H       -9.56075728      -2.79306799      -5.32414841
H      -11.45014881      -1.28094180      -4.66098935
H      -11.78593345      -2.30859849      -3.27001246
H      -12.23989965      -4.23816280      -4.80588726
H      -11.90365094      -3.20671479      -6.19727968
H      -16.44578159      -4.57937985      -7.33341243
H      -19.73684243      -2.04354218      -6.16804776
H      -18.19805583      -0.73518779      -4.71675977
H      -14.79283422      -1.59543605      -4.52161094
H       -2.69573424       0.18587694      -0.39372950
C       -0.88395526       0.88395526       0.88395526
C       -1.93213924       0.30727104       1.60271352
C       -2.73538928       1.11299312       2.40607740
C       -2.48032307       2.48024650       2.47933398
O       -3.30197043       3.22773571       3.28434350
C       -1.42846183       3.08112953       1.76242628
C       -1.12657223       4.52888736       1.81044539
H       -0.29572741       4.87293579       1.19841433
N       -1.88126513       5.33678260       2.58368797
C       -1.46237336       6.73923778       2.49780223
C       -2.35478285       7.60843587       3.40073769
C       -1.96869153       9.09026474       3.32040718
C       -2.85113245       9.96250214       4.22183611
C       -2.45932991      11.44137400       4.12186519
C       -3.33281583      12.33843203       5.01606991
N       -2.90280953      13.73137914       4.87241171
C       -3.63877163      14.58951846       5.60671484
H       -4.46854230      14.29285577       6.24431780
C       -3.31970907      16.03446706       5.55773416
C       -4.10259709      16.92137418       6.30756236
C       -3.83218052      18.29278855       6.28651322
Br      -4.90336731      19.47535535       7.30609390
C       -2.78245721      18.80652165       5.52370289
C       -1.99384699      17.93923400       4.77273785
C       -2.26561376      16.57350111       4.79481442
O       -1.45822100      15.76453490       4.03569939
C       -0.63029327       2.25639639       0.95934489
H       -2.13266470      -0.75712307       1.54676421
H       -3.55729983       0.69353893       2.97576124
H       -2.92669789       4.15053973       3.17233150
H       -1.53429066       7.12219138       1.47019075
H       -0.41835731       6.87336482       2.81365385
H       -2.27421499       7.26535884       4.44017107
H       -3.40588016       7.48962376       3.10785602
H       -2.05643123       9.43360974       2.28218829
H       -0.91801703       9.21040756       3.61199292
H       -2.75765000       9.62721270       5.26156735
H       -3.90229339       9.84108306       3.93459723
H       -2.54502261      11.76960997       3.07744737
H       -1.40418102      11.55736716       4.40299623
H       -3.24239779      11.98824783       6.05330409
H       -4.38281218      12.20087675       4.72395648
H       -4.92203417      16.53237792       6.90416178
H       -2.57170273      19.87032028       5.50640936
H       -1.17158044      18.30834190       4.17008106
H       -1.84639464      14.85625701       4.20722957
H        0.18751834       2.69531942       0.39578571
C        0.88395526      -0.88395526       0.88395526
C        2.12942476      -0.41185579       1.30084325
C        2.93230019      -1.21748088       2.10467873
C        2.48014521      -2.48040758       2.47935076
O        3.31048842      -3.23292709       3.27063413
C        1.22759004      -2.97493146       2.06949613
C        0.71233912      -4.31084537       2.44272051
H       -0.26488328      -4.58238074       2.04958008
N        1.46206481      -5.11407104       3.22559984
C        0.81506243      -6.40510988       3.47924105
C        1.71321830      -7.27335893       4.37737917
C        1.08630890      -8.64665809       4.64639646
C        1.97403658      -9.51617495       5.54525917
C        1.33829648     -10.88866349       5.79560912
C        2.21198460     -11.78164771       6.69368546
N        1.54464060     -13.07061080       6.89134898
C        2.26068769     -13.92512517       7.64919206
H        3.23418581     -13.69515844       8.07637162
C        1.71061423     -15.27057587       7.93072019
C        2.47046320     -16.15947274       8.70159770
C        1.98465019     -17.43860274       8.98822937
Br       3.02805200     -18.62589950      10.03086505
C        0.73931866     -17.85652554       8.51683754
C       -0.02943559     -16.98570563       7.74954879
C        0.45697087     -15.71217095       7.46478747
O       -0.34088870     -14.89551155       6.70383244
C        0.43273776      -2.15183231       1.26146447
H        2.48352729       0.57111767       1.00989622
H        3.90482648      -0.87801583       2.44375769
H        2.77762521      -4.07216613       3.39977777
H        0.62572104      -6.95451193       2.54643982
H       -0.15649835      -6.28360596       3.97826837
H        1.89006143      -6.75900440       5.33067908
H        2.69359416      -7.40736716       3.90239861
H        0.91659970      -9.16245597       3.69317360
H        0.10587983      -8.51422732       5.12031036
H        2.13718461      -9.00682953       6.50241590
H        2.95597693      -9.64676642       5.07523032
H        1.16783716     -11.39043427       4.83380853
H        0.35219130     -10.75303190       6.25932120
H        2.38000840     -11.25887150       7.64506981
H        3.19444847     -11.89717483       6.21602211
H        3.44088382     -15.84470310       9.07298695
H        0.36132833     -18.84870356       8.73840048
H       -1.00057012     -17.28164792       7.36892560
H        0.21357654     -14.06326994       6.63303473
H       -0.53776535      -2.50995181       0.93140033
