185
Properties=species:S:1:pos:R:3 pbc="F F F"
C        0.00000000       0.00000000       0.00000000
O        2.59821244       4.76095019       3.39468583
C        3.17815094       5.54888115       2.65196221
N        3.24831710       5.41758998       1.26554398
N        2.77362698       4.28251284       0.68395403
C        2.69942430       4.18937215      -0.61255868
C        3.00863666       5.34145554      -1.54978841
C        2.19119101       2.89910338      -1.18803910
C        2.49833489       2.48324299      -2.48977693
C        1.98367234       1.28133265      -2.98673177
C        1.17073189       0.48195446      -2.18449112
C        0.88197532       0.88197532      -0.88197532
C        1.38815590       2.07992843      -0.37925611
C        3.91539146       6.76415302       3.15420241
C        3.20665910       7.49300407       4.26817761
O        3.29048483       7.13208592       5.43870387
N        2.52253717       8.62288094       3.82945729
N        1.88011830       9.40393509       4.74005606
C        1.24629739      10.47343090       4.35604828
C        1.16936912      10.93441581       2.91568591
C        0.54672892      11.28072508       5.40447314
C        0.08698378      10.62553916       6.55683306
C       -0.57732459      11.33554097       7.55835119
C       -0.78038654      12.70697133       7.41950350
C       -0.30823857      13.36185642       6.28262837
C        0.35836730      12.66075497       5.27514923
H        3.79235522       6.06316168       0.70979572
H        3.97703924       5.78595929      -1.30781961
H        2.22563834       6.09804164      -1.43276532
H        3.03510552       5.05670181      -2.59969370
H        3.15286853       3.05868011      -3.13623398
H        2.22235694       0.96427388      -3.99948250
H        0.77529397      -0.45099401      -2.57839526
H        1.15544883       2.37880077       0.64191142
H        4.11737903       7.46214030       2.33307505
H        4.89425980       6.43798914       3.52850807
H        2.50911703       8.88301870       2.85333741
H        2.16096322      11.25706927       2.58498911
H        0.46291863      11.75416422       2.77234104
H        0.82748430      10.10850605       2.28400884
H        0.24459833       9.55423417       6.68043707
H       -0.93074022      10.81580071       8.44585266
H       -1.29744443      13.25398896       8.20373429
H        0.74005568      13.20145137       4.41547730
C       -0.50761109      14.78159351       6.14773146
C       -0.67458557      15.97062333       6.03475530
Br      -0.94456920      17.89318398       5.85208241
O        0.10380347      -6.07487145       2.00659118
C       -0.48120342      -6.79983225       1.20596580
N       -1.07475491      -6.35198025       0.02637206
N       -1.14782607      -5.01387135      -0.21048837
C       -1.56977666      -4.57155204      -1.36002643
C       -1.88818222      -5.47656302      -2.53513537
C       -1.65029847      -3.08366556      -1.54436946
C       -2.49913335      -2.48697864      -2.48524282
C       -2.52310426      -1.09622422      -2.63240828
C       -1.71052487      -0.29271818      -1.83393442
C       -0.88197532      -0.88197532      -0.88197532
C       -0.84933746      -2.26761362      -0.73038935
C       -0.65172979      -8.28371364       1.41010136
C        0.57049681      -8.96934411       1.96736174
O        0.82234211      -8.97521952       3.16901053
N        1.31682579      -9.62607692       0.99329031
N        2.41999732     -10.33024426       1.36624961
C        3.12531327     -10.96481550       0.47582220
C        2.79619182     -10.98212514      -1.00216570
C        4.33591175     -11.70736006       0.94846745
C        4.99384602     -11.24957906       2.10004316
C        6.13105595     -11.90540441       2.57448327
C        6.61488198     -13.02822539       1.90626213
C        5.95128646     -13.49414834       0.77187240
C        4.81215728     -12.84560964       0.28947931
H       -1.59698194      -6.98416823      -0.56457100
H       -2.55695357      -6.28468987      -2.22917470
H       -0.94951571      -5.90509888      -2.90183072
H       -2.36120012      -4.96148060      -3.36882031
H       -3.17103308      -3.07257403      -3.10417552
H       -3.18159190      -0.63772199      -3.36679943
H       -1.73569488       0.78745147      -1.95445182
H       -0.19785775      -2.71408792       0.01960749
H       -0.94858139      -8.77237801       0.47451511
H       -1.47987365      -8.43764105       2.11377383
H        1.04564069      -9.60476165       0.02032265
H        1.87012913     -11.54248504      -1.16068746
H        3.58899555     -11.42810586      -1.60563150
H        2.66513985      -9.95633526      -1.36078609
H        4.62223419     -10.37599449       2.63536486
H        6.63329781     -11.53948332       3.46697769
H        7.50027016     -13.53485482       2.28177441
H        4.29987710     -13.24760603      -0.57830082
C        6.44559046     -14.66267001       0.09082858
C        6.85957006     -15.64130690      -0.47954562
Br       7.52894006     -17.22367998      -1.40179245
O       -6.19567392      -0.93428261      -1.29691450
C       -6.88664681      -0.11561950      -0.69595743
N       -6.38077097       0.87682770       0.14276443
N       -5.05351024       0.87532108       0.44335447
C       -4.52879528       1.86371600       1.10884386
C       -5.29802645       3.11556529       1.48628887
C       -3.06406824       1.78502393       1.42924132
C       -2.48924404       2.48355945       2.49855133
C       -1.11518574       2.39274981       2.74380122
C       -0.30945823       1.59544229       1.93227695
C       -0.88197532       0.88197532       0.88197532
C       -2.25022894       0.96885167       0.62825983
C       -8.39197635      -0.09254243      -0.77409184
C       -8.93711882      -0.34895801      -2.15667525
O       -9.07158834      -1.48484758      -2.60287388
N       -9.31574552       0.81660544      -2.81639015
N       -9.87259219       0.72621747      -4.05481233
C      -10.24827841       1.80065505      -4.68525344
C      -10.11004463       3.19908889      -4.12103450
C      -10.83888051       1.63461346      -6.05051311
C      -10.44633400       0.52821253      -6.81885665
C      -10.96475749       0.33559738      -8.10048968
C      -11.88522901       1.24286062      -8.62100834
C      -12.28910062       2.33303967      -7.85115081
C      -11.77697762       2.53435359      -6.56735816
H       -7.00054804       1.48437591       0.66079723
H       -6.24114591       2.85630466       1.97336756
H       -5.50823592       3.67782442       0.57038497
H       -4.75562348       3.77640343       2.15947412
H       -3.08444324       3.08943603       3.17390336
H       -0.67289840       2.93976503       3.57344988
H        0.75753801       1.53004916       2.13018408
H       -2.68415821       0.40361513      -0.19543516
H       -8.78533993       0.85947227      -0.39836791
H       -8.77963037      -0.87119588      -0.10469361
H       -9.20188221       1.72402946      -2.38711335
H      -10.78819051       3.31540980      -3.27055694
H      -10.32789782       3.97459055      -4.85774656
H       -9.07990428       3.36004900      -3.78797177
H       -9.73157235      -0.19203364      -6.42114328
H      -10.65093754      -0.52482352      -8.68690620
H      -12.28584887       1.08625498      -9.61929360
H      -12.13117676       3.37522487      -5.98037188
C      -13.25060796       3.26189436      -8.38625136
C      -14.05587036       4.03981016      -8.83439807
Br     -15.35791155       5.29763422      -9.55901339
O       -3.48330891      -2.99141437       4.45637134
C       -2.75086956      -3.57399949       5.25193995
N       -1.35800248      -3.57147240       5.18689318
N       -0.74750813      -3.01352895       4.10616498
C        0.54663931      -2.87316091       4.08155492
C        1.44226838      -3.19460461       5.26300763
C        1.15674682      -2.27429101       2.84729565
C        2.49051540      -2.49798804       2.48285137
C        3.01775912      -1.90085517       1.33312248
C        2.21484767      -1.08808323       0.53424657
C        0.88197532      -0.88197532       0.88197532
C        0.34874547      -1.47072299       2.02787198
C       -3.27290105      -4.39409901       6.40414412
C       -4.45431134      -3.77647471       7.10932219
O       -5.60068745      -3.89776209       6.68679224
N       -4.10457744      -3.12956094       8.29097732
N       -5.08226654      -2.57102362       9.05524024
C       -4.78172864      -1.97387742      10.17153124
C       -3.37057601      -1.85163182      10.70704322
C       -5.90101928      -1.36619553      10.95780461
C       -7.04242959      -0.92964039      10.26847908
C       -8.10853436      -0.35004170      10.95835785
C       -8.04541637      -0.20937844      12.34311921
C       -6.91881994      -0.65902860      13.03078083
C       -5.84707707      -1.24108038      12.34996973
H       -0.80711314      -4.12002630       5.83280801
H        1.22811113      -4.19442138       5.64828562
H        1.25040429      -2.45684170       6.04919932
H        2.50454296      -3.15682826       5.03012981
H        3.14075514      -3.14895405       3.05807344
H        4.05510776      -2.07494262       1.05606294
H        2.63244580      -0.62823231      -0.35798288
H       -0.69583595      -1.30209064       2.28608348
H       -2.47684892      -4.59140947       7.13188374
H       -3.58188824      -5.37214812       6.01348098
H       -3.14383158      -3.08272598       8.59990392
H       -3.00647588      -2.84124915      10.99827010
H       -3.30187329      -1.18100172      11.56561338
H       -2.71818881      -1.43924106       9.93092926
H       -7.10689102      -1.03923452       9.18605193
H       -8.98684934      -0.01372795      10.41232922
H       -8.87963961       0.24180251      12.87425236
H       -4.99610981      -1.60797069      12.91416886
C       -6.86175743      -0.52464752      14.46336088
C       -6.81396758      -0.41210336      15.66314667
Br      -6.73669543      -0.23012899      17.60309882
