198
Properties=species:S:1:pos:R:3 pbc="F F F"
O        3.50811647       5.67085422       2.48478180
C        4.08805496       6.45878517       1.74205818
N        4.15822112       6.32749400       0.35563995
N        3.68353100       5.19241686      -0.22595000
C        3.60932832       5.09927617      -1.52246271
C        3.91854069       6.25135957      -2.45969243
C        3.10109503       3.80900741      -2.09794312
C        3.40823891       3.39314701      -3.39968096
C        2.89357636       2.19123667      -3.89663580
C        2.08063592       1.39185849      -3.09439515
C        1.79187934       1.79187934      -1.79187934
C        2.29805992       2.98983245      -1.28916014
C        4.82529549       7.67405705       2.24429839
C        4.11656313       8.40290809       3.35827358
O        4.20038885       8.04198995       4.52879984
N        3.43244119       9.53278496       2.91955327
N        2.79002233      10.31383911       3.83015204
C        2.15620142      11.38333493       3.44614426
C        2.07927315      11.84431983       2.00578188
C        1.45663294      12.19062910       4.49456911
C        0.99688780      11.53544319       5.64692904
C        0.33257944      12.24544499       6.64844716
C        0.12951748      13.61687536       6.50959948
C        0.60166545      14.27176044       5.37272434
Br       0.33971381      16.13712516       5.19548595
C        1.26827133      13.57065900       4.36524521
H        4.70225924       6.97306571      -0.20010830
H        4.88694326       6.69586331      -2.21772363
H        3.13554237       7.00794567      -2.34266934
H        3.94500955       5.96660583      -3.50959773
H        4.06277256       3.96858413      -4.04613801
H        3.13226097       1.87417790      -4.90938652
H        1.68519800       0.45891002      -3.48829929
H        2.06535285       3.28870480      -0.26799260
H        5.02728306       8.37204433       1.42317102
H        5.80416383       7.34789316       2.61860405
H        3.41902105       9.79292272       1.94343339
H        3.07086724      12.16697329       1.67508509
H        1.37282265      12.66406824       1.86243702
H        1.73738832      11.01841007       1.37410482
H        1.15450236      10.46413820       5.77053305
H       -0.02083619      11.72570473       7.53594864
H       -0.38754040      14.16389299       7.29383027
H        1.64995971      14.11135539       3.50557327
O       -6.58727255      -1.95631576       1.84939943
C       -7.22761820      -2.78616522       1.20900146
N       -6.76922079      -3.41023093       0.04937654
N       -5.60104125      -2.99159416      -0.50926245
C       -5.07947129      -3.64286458      -1.50873134
C       -5.64357348      -4.94772446      -2.03829475
C       -3.80330613      -3.11074919      -2.09399024
C       -3.40281813      -3.39186250      -3.40638625
C       -2.19440416      -2.88821275      -3.89883192
C       -1.38537539      -2.09161395      -3.08990021
C       -1.79187934      -1.79187934      -1.79187934
C       -2.99338814      -2.29203896      -1.29162541
C       -8.61829636      -3.22638463       1.58962684
C       -8.81513579      -3.41852468       3.07246283
O       -9.05881804      -2.47856107       3.82380015
N       -8.75253259      -4.75366768       3.46052738
N       -8.96435425      -5.07514854       4.76579339
C       -8.92577103      -6.31767358       5.15005252
C       -8.65544540      -7.47909701       4.21673131
C       -9.15120460      -6.60338841       6.60190008
C       -8.80680063      -5.61738620       7.53878487
C       -8.99219809      -5.84140727       8.90402810
C       -9.53036514      -7.04933695       9.34290873
C       -9.88920537      -8.02278721       8.41129103
Br     -10.63599870      -9.65494855       9.00959423
C       -9.70850280      -7.80818491       7.04300259
H       -7.36435528      -4.03967599      -0.47140197
H       -6.71506071      -4.85443568      -2.23103381
H       -5.47960392      -5.72353272      -1.28302075
H       -5.17558552      -5.28446974      -2.96115785
H       -4.01721323      -3.98042734      -4.07985413
H       -1.88611173      -3.11205303      -4.91766063
H       -0.44793495      -1.70378244      -3.48068992
H       -3.29919947      -2.04758189      -0.27526889
H       -8.89068498      -4.14905213       1.06358075
H       -9.32395778      -2.45802992       1.24853475
H       -8.57126307      -5.48769672       2.79044940
H       -9.49656268      -7.59275960       3.52656684
H       -8.50217232      -8.42029517       4.74801361
H       -7.74169147      -7.28596155       3.64595944
H       -8.39044966      -4.66594599       7.20828815
H       -8.71929005      -5.07002270       9.62039284
H       -9.67314219      -7.21679267      10.40741254
H      -10.02362422      -8.57184665       6.33972905
O       -7.05546963       0.44971495      -0.81099570
C       -7.73311240       1.27326302      -0.20159346
N       -7.22317541       2.17979929       0.72710048
N       -5.92012369       2.07613905       1.10563512
C       -5.38066778       2.98777773       1.86262169
C       -6.09624430       4.26116635       2.27218204
C       -3.94653391       2.79732024       2.26419141
C       -3.40007783       3.39292981       3.40805924
C       -2.05222225       3.20063774       3.72858884
C       -1.24562457       2.40364405       2.91762093
C       -1.79187934       1.79187934       1.79187934
C       -3.13364974       1.98038976       1.46301301
C       -9.22638613       1.39644039      -0.36777237
C       -9.69701703       1.25807644      -1.79389583
O       -9.87042583       0.16165649      -2.31850337
N       -9.96280413       2.48259530      -2.39972654
N      -10.44433807       2.50177029      -3.67239896
C      -10.71448998       3.63357655      -4.25467445
C      -10.52915764       4.98426322      -3.59560976
C      -11.22611550       3.58709446      -5.66051703
C      -10.85230888       2.50582594      -6.47273286
C      -11.29892229       2.42330183      -7.79264686
C      -12.12873810       3.41658275      -8.30852749
C      -12.51489063       4.48231940      -7.49650848
Br     -13.65597238       5.82019694      -8.19481629
C      -12.07417186       4.57378019      -6.17426694
H       -7.83722545       2.79346389       1.24474391
H       -7.08215623       4.03368190       2.68469208
H       -6.21398902       4.88926994       1.38289842
H       -5.55919755       4.84491148       3.01710407
H       -3.99972644       3.99398402       4.08378424
H       -1.63163020       3.66801136       4.61618383
H       -0.19914349       2.25898212       3.17428169
H       -3.54738036       1.49397849       0.58069140
H       -9.58530197       2.34738439       0.04347000
H       -9.70149963       0.60541080       0.22654251
H       -9.82247931       3.35373512      -1.90770404
H      -11.25175720       5.09243817      -2.78143993
H      -10.65316660       5.81459369      -4.29330641
H       -9.51446529       5.05936996      -3.19214168
H      -10.20847091       1.71923188      -6.07959529
H      -11.00041311       1.58122093      -8.41271414
H      -12.47382824       3.34555149      -9.33685741
H      -12.41410924       5.39891421      -5.55728163
O        6.13961269      -2.80621949      -2.25164329
C        6.76192666      -3.63414509      -1.59128980
N        6.37088807      -4.09324488      -0.33405778
N        5.31321206      -3.50265793       0.28602787
C        4.84018568      -3.99727829       1.39360323
C        5.33014457      -5.29792488       2.00152324
C        3.68922177      -3.28045644       2.03836736
C        3.40423664      -3.39163382       3.40519642
C        2.30785463      -2.71895809       3.95463611
C        1.49765298      -1.92222419       3.14701237
C        1.79187934      -1.79187934       1.79187934
C        2.88093603      -2.46111632       1.23500016
C        8.05654012      -4.25258325      -2.05406922
C        8.07694549      -4.60464425      -3.52039211
O        8.32850608      -3.77137302      -4.38630014
N        7.84702995      -5.95661179      -3.75796885
N        7.88865438      -6.42138035      -5.03632533
C        7.69173181      -7.68383502      -5.28217474
C        7.41188299      -8.71619647      -4.21026836
C        7.73479853      -8.12858494      -6.71069054
C        7.38907029      -7.20547237      -7.70914071
C        7.40749841      -7.57669405      -9.05461520
C        7.77902688      -8.87083836      -9.41307188
C        8.13968525      -9.78354763      -8.42253133
Br       8.66056038     -11.53477173      -8.91397908
C        8.12532867      -9.42185391      -7.07349746
H        6.95492665      -4.72941982       0.19108678
H        6.41995826      -5.30007057       2.08050138
H        5.01445749      -6.12049819       1.35120170
H        4.93202737      -5.49413888       2.99504686
H        4.02731107      -3.97483759       4.07534604
H        2.08866818      -2.81109327       5.01606394
H        0.64777191      -1.40240506       3.58223034
H        3.09988917      -2.34807653       0.17408455
H        8.29374635      -5.14452279      -1.46211277
H        8.86410838      -3.53385418      -1.86450961
H        7.66829404      -6.60034054      -3.00012419
H        8.30634385      -8.85159294      -3.59518135
H        7.11462996      -9.68229162      -4.62246770
H        6.58587055      -8.37446539      -3.57864237
H        7.10229790      -6.18836456      -7.44255495
H        7.13533688      -6.85256563      -9.81898261
H        7.79232002      -9.15295452     -10.46275223
H        8.43863261     -10.14402910      -6.32691989
C       -0.00445707       0.01189536      -1.78238275
H       -0.66409135       0.67374010      -2.43557963
H        0.65740317      -0.63156657      -2.45157240
C       -0.90989263      -0.90692880      -0.91072765
C        0.90977584       0.90977584      -0.90977584
C       -0.00465871       1.77757030       0.00794375
H       -0.66225468       2.44313916      -0.64384735
H        0.64322798       2.43503045       0.67728295
C       -1.78241447       0.00034974      -0.00472694
H       -2.45427497      -0.65498947       0.64260836
H       -2.43311707       0.67328779      -0.65473579
C       -0.91132561       0.90220522       0.91563759
C       -0.01476271      -0.02253852       1.78660255
H       -0.67934791      -0.69751639       2.42135241
H        0.63392994       0.61504881       2.47327442
C        0.01484550      -1.77751727      -0.01636693
H        0.67870853      -2.42144646      -0.68295456
H       -0.62264859      -2.45592969       0.64226336
C        1.78714474       0.01002794       0.00389507
H        2.44202412       0.67113390       0.66197326
H        2.45385902      -0.65136977      -0.64189061
C        0.91606151      -0.90478549       0.90901405
