177
Properties=species:S:1:pos:R:3 pbc="F F F"
C        0.00000000       0.00000000       0.00000000
C        0.87119025       0.87119025      -0.87119025
C        2.17728951       0.58055912      -1.17619990
C        2.74776202       1.58747657      -2.01307528
C        1.84442590       2.58989177      -2.32183358
C        2.01113072       3.76414801      -3.13473071
N        3.16810442       4.09495411      -3.61298115
C        3.26601374       5.26244262      -4.39436762
C        2.57668298       6.44784584      -4.10910729
C        2.73274043       7.58508273      -4.90956425
C        3.60767151       7.57322430      -6.00381806
C        4.31060068       6.39446099      -6.28334532
C        4.14127697       5.25794924      -5.48488862
C        3.79067310       8.80858578      -6.85492586
C        2.80515843       8.92329839      -7.99486286
C        1.54011382       9.48118896      -7.78079467
C        0.61793726       9.57773893      -8.82471673
C        0.94374735       9.15147068     -10.11811310
C        2.20067756       8.57556010     -10.32705408
C        3.12415646       8.45721340      -9.27751186
N        0.04337433       9.24845530     -11.19641881
C       -0.57700692      10.37811511     -11.34736481
C       -1.51358456      10.60155216     -12.42090399
C       -1.99045749       9.73133771     -13.38238295
C       -2.87396151      10.37572272     -14.30380205
C       -3.03193968      11.70325980     -13.99078671
Br      -4.08270567      12.89034055     -14.99002645
S       -2.17648371      12.17134596     -12.61004444
S        0.32314297       2.31035107      -1.57412402
H        2.70439854      -0.29786233      -0.82633660
H        3.76651527       1.57701334      -2.38530704
H        1.10496490       4.36761996      -3.33474529
H        1.91795733       6.50845322      -3.24997010
H        2.17064877       8.48104414      -4.66439697
H        5.00383409       6.35565081      -7.12172784
H        4.70586937       4.35273559      -5.70993997
H        4.81723266       8.84335544      -7.24278175
H        3.70936343       9.70182170      -6.21832691
H        1.25684186       9.84121193      -6.79360313
H       -0.36498533       9.98939252      -8.61732304
H        2.46465327       8.21123564     -11.31737789
H        4.08977607       8.00057278      -9.47288246
H       -0.40100747      11.22627121     -10.65961679
H       -1.70542392       8.68591831     -13.43278630
H       -3.34748827       9.88815131     -15.14695108
C       -0.87119025      -0.87119025      -0.87119025
C       -0.50233279      -1.31560168      -2.11611405
C       -1.52998079      -2.11442768      -2.70390541
C       -2.62731692      -2.25667584      -1.87215849
C       -3.85224077      -2.98150047      -2.07626820
N       -4.12808798      -3.53308451      -3.21486720
C       -5.34913839      -4.22099520      -3.35269038
C       -6.55689065      -3.77784617      -2.79889930
C       -7.74483138      -4.49242248      -2.99013356
C       -7.75938430      -5.65828306      -3.76704651
C       -6.55658233      -6.09641879      -4.33540587
C       -5.37063737      -5.38257253      -4.13090494
C       -9.04705186      -6.41745272      -3.98968016
C       -9.34502119      -7.45056908      -2.92772941
C       -9.98393669      -7.07803982      -1.74012094
C      -10.24999654      -8.02306842      -0.74732797
C       -9.91654942      -9.37133285      -0.92544886
C       -9.25995735      -9.73953072      -2.10380366
C       -8.97165026      -8.79084193      -3.09638952
N      -10.18433766     -10.35241589       0.04850510
C      -11.37037210     -10.35301916       0.57491826
C      -11.76622564     -11.31566396       1.57301802
C      -11.02855907     -12.29884802       2.20414392
C      -11.82411357     -13.08052395       3.09907426
C      -13.12654175     -12.64596323       3.11039815
Br     -14.48155048     -13.44497733       4.12886648
S      -13.39604705     -11.31398793       2.10512829
S       -2.40816493      -1.40059369      -0.39885943
H        0.44456557      -1.08841573      -2.58902264
H       -1.46898275      -2.57652400      -3.68332890
H       -4.54406103      -3.04851930      -1.21474981
H       -6.59404634      -2.86079279      -2.22154151
H       -8.65841445      -4.12443908      -2.53323636
H       -6.53633990      -6.99418183      -4.95069101
H       -4.44585239      -5.73158043      -4.59111212
H       -9.03171045      -6.89202301      -4.97963639
H       -9.88294712      -5.70451747      -4.04204745
H      -10.27571115      -6.04298884      -1.57295693
H      -10.72106894      -7.69466295       0.17400165
H       -8.96578980     -10.77630717      -2.25116981
H       -8.45627415      -9.10947151      -3.99748565
H      -12.13566247      -9.61622616       0.26700809
H       -9.97197601     -12.46091022       2.01960553
H      -11.45528248     -13.91495947       3.68262782
C       -0.87119025       0.87119025       0.87119025
C       -2.12290950       0.50919364       1.30194539
C       -2.70878787       1.53503191       2.10449410
C       -1.86906293       2.62402283       2.26306550
C       -2.06899599       3.84448592       2.99652753
N       -3.20987636       4.12534122       3.54082210
C       -3.34324659       5.34167891       4.23789847
C       -2.77555260       6.54837273       3.80971078
C       -2.96283568       7.73183230       4.53271944
C       -3.74947763       7.74316247       5.69207378
C       -4.33165454       6.54158462       6.11516783
C       -4.13109513       5.36000179       5.39301791
C       -3.96769647       9.02623279       6.46025547
C       -2.91209025       9.30645128       7.50477816
C       -1.71601751       9.93836795       7.14771199
C       -0.72908443      10.18800918       8.10329932
C       -0.92145956       9.84473882       9.44713274
C       -2.10839144       9.19510470       9.79979560
C       -3.09527377       8.92324691       8.84036103
N        0.04634403      10.09596460      10.43862788
C        0.58270814      11.27743566      10.45374547
C        1.57589159      11.65666775      11.42809542
C        2.19240165      10.90540630      12.41025852
C        3.08732888      11.68671232      13.20617982
C        3.11331930      12.99261271      12.78281342
Br       4.13634241      14.33213699      13.60186674
S        2.12171121      13.28186479      11.44475311
S       -0.39044116       2.39958023       1.41759667
H       -2.60183240      -0.43170391       1.06274432
H       -3.69258201       1.47846748       2.55778616
H       -1.20227939       4.52837090       3.07667986
H       -2.19013013       6.58834677       2.89790375
H       -2.49514610       8.64456803       4.17637576
H       -4.95469521       6.51900748       7.00751005
H       -4.60202759       4.43625297       5.73026437
H       -4.96174389       9.01530613       6.92631984
H       -4.00695819       9.86852055       5.75403330
H       -1.53761124      10.23742255       6.11662313
H        0.19893930      10.65398577       7.78668376
H       -2.26703608       8.89347442      10.83275629
H       -4.00335569       8.41288022       9.14699540
H        0.28752964      12.05149616       9.72091402
H        1.99759632       9.84910151      12.56177551
H        3.66064192      11.30591758      14.04233846
C        0.87119025      -0.87119025       0.87119025
C        0.38092601      -1.73389832       1.81922420
C        1.43955384      -2.41922116       2.48953887
C        2.68705613      -2.06023088       2.00886424
C        3.99300881      -2.51943749       2.39756313
N        4.15702320      -3.30596175       3.41305473
C        5.46332954      -3.71218968       3.74730475
C        6.57843469      -2.86672477       3.68847664
C        7.84989407      -3.32089442       4.05659893
C        8.03342851      -4.62979900       4.52148636
C        6.91818025      -5.47379702       4.59642971
C        5.65176078      -5.01594432       4.21640974
C        9.40364769      -5.11232362       4.93821343
C       10.22303443      -5.69191153       3.80837373
C       10.97252305      -4.85241202       2.97716238
C       11.72079401      -5.37772749       1.92187142
C       11.76898004      -6.75731493       1.68703615
C       11.00386623      -7.59401903       2.50540647
C       10.23389685      -7.07022420       3.55476067
N       12.52527576      -7.32129181       0.64168087
C       13.74500508      -6.90095769       0.50251022
C       14.62022392      -7.41200713      -0.52335947
C       14.36643244      -8.30422830      -1.54739758
C       15.53642697      -8.58811892      -2.31898263
C       16.62053834      -7.88948487      -1.84791637
Br      18.34297359      -8.02775747      -2.57306973
S       16.25277858      -6.88850175      -0.53637364
S        2.56080953      -0.87941879       0.76738973
H       -0.67154780      -1.87443178       2.02998882
H        1.29992112      -3.15108505       3.27782949
H        4.84830825      -2.17258814       1.78643375
H        6.47165628      -1.83623022       3.36849414
H        8.69223397      -2.63970778       3.98414813
H        7.02648467      -6.49377641       4.96095166
H        4.79267587      -5.68299006       4.29287901
H        9.30774612      -5.84865843       5.74696531
H        9.95801346      -4.27837308       5.39312550
H       10.97558759      -3.77632454       3.13974479
H       12.26777076      -4.69536176       1.27859772
H       11.00352108      -8.66640380       2.32334191
H        9.64741389      -7.74746006       4.16835736
H       14.16952727      -6.13605338       1.17929988
H       13.39149398      -8.74580215      -1.72401544
H       15.57069689      -9.27361756      -3.15670032
