185
Properties=species:S:1:pos:R:3 pbc="F F F"
C        0.00000000       0.00000000       0.00000000
C        0.87119025       0.87119025      -0.87119025
C        2.17728951       0.58055912      -1.17619990
C        2.74776202       1.58747657      -2.01307528
C        1.84442590       2.58989177      -2.32183358
C        2.01113072       3.76414801      -3.13473071
N        3.16810442       4.09495411      -3.61298115
C        3.26601374       5.26244262      -4.39436762
C        2.57668298       6.44784584      -4.10910729
C        2.73274043       7.58508273      -4.90956425
C        3.60767151       7.57322430      -6.00381806
C        4.31060068       6.39446099      -6.28334532
C        4.14127697       5.25794924      -5.48488862
C        3.79067310       8.80858578      -6.85492586
C        2.80515843       8.92329839      -7.99486286
C        1.54011382       9.48118896      -7.78079467
C        0.61793726       9.57773893      -8.82471673
C        0.94374735       9.15147068     -10.11811310
C        2.20067756       8.57556010     -10.32705408
C        3.12415646       8.45721340      -9.27751186
N        0.04337433       9.24845530     -11.19641881
C       -0.57700692      10.37811511     -11.34736481
C       -1.51358456      10.60155216     -12.42090399
C       -1.99045749       9.73133771     -13.38238295
C       -2.87396151      10.37572272     -14.30380205
C       -3.03193968      11.70325980     -13.99078671
S       -2.17648371      12.17134596     -12.61004444
S        0.32314297       2.31035107      -1.57412402
H        2.70439854      -0.29786233      -0.82633660
H        3.76651527       1.57701334      -2.38530704
H        1.10496490       4.36761996      -3.33474529
H        1.91795733       6.50845322      -3.24997010
H        2.17064877       8.48104414      -4.66439697
H        5.00383409       6.35565081      -7.12172784
H        4.70586937       4.35273559      -5.70993997
H        4.81723266       8.84335544      -7.24278175
H        3.70936343       9.70182170      -6.21832691
H        1.25684186       9.84121193      -6.79360313
H       -0.36498533       9.98939252      -8.61732304
H        2.46465327       8.21123564     -11.31737789
H        4.08977607       8.00057278      -9.47288246
H       -0.40100747      11.22627121     -10.65961679
H       -1.70542392       8.68591831     -13.43278630
H       -3.34748827       9.88815131     -15.14695108
C       -3.83937308      12.61544068     -14.75862612
C       -4.51559855      13.37939215     -15.40169163
Br      -5.60899795      14.61463708     -16.44147417
C       -0.87119025      -0.87119025      -0.87119025
C       -0.53857731      -1.24695474      -2.14851648
C       -1.55664424      -2.06450429      -2.72716535
C       -2.60994350      -2.28878076      -1.85742700
C       -3.81134349      -3.05700275      -2.04166320
N       -4.11318800      -3.57217518      -3.19067650
C       -5.30937887      -4.30614104      -3.30730406
C       -6.50933490      -3.93930679      -2.68499441
C       -7.67368609      -4.69622856      -2.85747277
C       -7.67342991      -5.82827041      -3.68301356
C       -6.47925667      -6.18970904      -4.31944128
C       -5.31629099      -5.43415493      -4.13366892
C       -8.93683496      -6.63272952      -3.88462026
C       -9.14513360      -7.72112113      -2.85706495
C       -9.74681288      -7.42645322      -1.62883135
C       -9.92993047      -8.42265189      -0.66781056
C       -9.54870260      -9.74657610      -0.91805242
C       -8.92915710     -10.03653786      -2.13759678
C       -8.72397593      -9.03572790      -3.09917788
N       -9.73286297     -10.77805481       0.02266934
C      -10.89385848     -10.85208613       0.59747162
C      -11.20557087     -11.87172777       1.56842706
C      -10.40090143     -12.84736003       2.12499829
C      -11.12360496     -13.69942775       3.01746945
C      -12.44127079     -13.32269838       3.10186234
S      -12.80939692     -11.96299760       2.16748783
S       -2.36282810      -1.48605633      -0.35873362
H        0.37660779      -0.95936551      -2.65011509
H       -1.51906455      -2.48234544      -3.72742566
H       -4.46169967      -3.18981122      -1.15581926
H       -6.55951738      -3.04956100      -2.06730226
H       -8.58108572      -4.38761291      -2.34739126
H       -6.44840720      -7.05935536      -4.97345017
H       -4.39864336      -5.72320510      -4.64669647
H       -8.94476748      -7.06456678      -4.89403559
H       -9.80316681      -5.95521416      -3.87113107
H      -10.07388196      -6.41290893      -1.40486603
H      -10.37380023      -8.15365345       0.28572344
H       -8.59876750     -11.05252463      -2.34197465
H       -8.23541077      -9.29388599      -4.03393456
H      -11.70180628     -10.13705241       0.35397816
H       -9.34750202     -12.95555304       1.88977436
H      -10.69536096     -14.54062161       3.54836843
C      -13.42105442     -14.01337095       3.89973165
C      -14.24162321     -14.59180923       4.56794720
Br     -15.56841354     -15.52709500       5.64839523
C       -0.87119025       0.87119025       0.87119025
C       -2.12170695       0.50795393       1.30438765
C       -2.70792400       1.53411936       2.10627052
C       -1.86961052       2.62461784       2.26192289
C       -2.07028240       3.84588666       2.99384039
N       -3.21076241       4.12584036       3.53943691
C       -3.34492039       5.34302934       4.23487425
C       -2.77970284       6.54993039       3.80400289
C       -2.96768452       7.73419906       4.52550384
C       -3.75258858       7.74609550       5.68602980
C       -4.33230446       6.54428080       6.11182173
C       -4.13104802       5.36191023       5.39115658
C       -3.97158851       9.02999634       6.45259990
C       -2.91482951       9.31339253       7.49509764
C       -1.72025656       9.94657575       7.13526514
C       -0.73225874      10.19915620       8.08897798
C       -0.92208128       9.85763103       9.43361881
C       -2.10749321       9.20673756       9.78906096
C       -3.09541247       8.93193484       8.83153440
N        0.04683900      10.11182149      10.42326596
C        0.58143534      11.29412387      10.43578446
C        1.57551562      11.67633276      11.40805444
C        2.19464739      10.92749290      12.39041766
C        3.08959289      11.71135598      13.18380017
C        3.11296513      13.01665146      12.75842051
S        2.11889772      13.30237673      11.42142768
S       -0.39193079       2.40113131       1.41455595
H       -2.59956544      -0.43402801       1.06733537
H       -3.69094472       1.47675384       2.56113709
H       -1.20448236       4.53120218       3.07164562
H       -2.19572115       6.58940866       2.89125084
H       -2.50191730       8.64710026       4.16707233
H       -4.95396005       6.52211301       7.00513968
H       -4.60007032       4.43796213       5.73051249
H       -4.96491229       9.01827231       6.92018526
H       -4.01319383       9.87115317       5.74516504
H       -1.54386293      10.24433781       6.10345618
H        0.19457830      10.66605562       7.77025292
H       -2.26411854       8.90643254      10.82271571
H       -4.00225561       8.42066047       9.14031523
H        0.28397692      12.06662629       9.70223116
H        2.00167148       9.87112541      12.54382677
H        3.66474585      11.33269553      14.01966445
C        3.89847127      14.04811324      13.38505175
C        4.55633266      14.91196248      13.90985541
Br       5.62003888      16.30873364      14.75841854
C        0.87119025      -0.87119025       0.87119025
C        0.38100570      -1.73257425       1.82046858
C        1.43961941      -2.41825457       2.49043990
C        2.68700831      -2.06085520       2.00828774
C        3.99289536      -2.52090621       2.39620787
N        4.15712107      -3.30664677       3.41227184
C        5.46336039      -3.71376954       3.74569405
C        6.57918808      -2.86938606       3.68506196
C        7.85056755      -3.32438729       4.05243259
C        8.03332592      -4.63303213       4.51835584
C        6.91737130      -5.47593376       4.59510193
C        5.65102416      -5.01726507       4.21582560
C        9.40348376      -5.11643451       4.93426647
C       10.22129654      -5.69781549       3.80420765
C       10.97079145      -4.85977123       2.97153477
C       11.71760706      -5.38674579       1.91604008
C       11.76430793      -6.76659242       1.68243078
C       10.99917859      -7.60183869       2.50227445
C       10.23065771      -7.07637027       3.55185373
N       12.51912187      -7.33222660       0.63689997
C       13.73910866      -6.91314377       0.49622057
C       14.61291224      -7.42594212      -0.52998278
C       14.35735756      -8.31887078      -1.55296518
C       15.52637963      -8.60454799      -2.32536436
C       16.61156636      -7.90647932      -1.85593884
S       16.24593505      -6.90395214      -0.54498050
S        2.56070497      -0.88106978       0.76584330
H       -0.67140243      -1.87194479       2.03233045
H        1.30003937      -3.14926423       3.27953206
H        4.84795048      -2.17540668       1.78397299
H        6.47306301      -1.83908840       3.36422923
H        8.69346658      -2.64404335       3.97857995
H        7.02507304      -6.49567671       4.96046298
H        4.79139684      -5.68344901       4.29369908
H        9.30764957      -5.85193652       5.74378377
H        9.95903493      -4.28257662       5.38790049
H       10.97499543      -3.78353795       3.13312354
H       12.26461876      -4.70547588       1.27163560
H       10.99767946      -8.67438970       2.32119763
H        9.64411724      -7.75250124       4.16661284
H       14.16495711      -6.14800843       1.17191499
H       13.38185117      -8.75970915      -1.72827962
H       15.55924778      -9.29084812      -3.16248177
C       17.93451443      -8.01446220      -2.41428291
C       19.04248343      -8.10489787      -2.88189607
Br      20.83397561      -8.25112469      -3.63798700
