150
Properties=species:S:1:pos:R:3 pbc="F F F"
O        2.60381039       5.16452628      -6.48065664
C        2.62400511       4.49212655      -5.47471252
N        1.59122431       3.77483473      -4.91728219
C        1.99682373       3.14030113      -3.75012097
C        1.20811313       2.34650849      -2.94304980
C        1.79774292       1.79774292      -1.79774292
C        3.15377704       2.05262831      -1.47353235
C        3.80132882       1.47195280      -0.24497202
C        3.92690500       2.86955662      -2.32369487
C        3.33624149       3.39841828      -3.45812201
C        3.83445849       4.26051017      -4.54334867
N        4.98925482       4.78061643      -4.81578040
C        6.09792040       4.55720023      -4.00125826
C        6.45860340       5.49968476      -3.03937215
C        7.58579950       5.29881173      -2.23847065
C        8.38107396       4.15306424      -2.39478254
C        9.58737546       3.97326875      -1.51632308
C        8.02302196       3.22078883      -3.38206512
Br       9.02896812       1.63682912      -3.67890759
C        6.89774605       3.42876635      -4.18598743
H        0.66976238       3.74524038      -5.32793630
H        0.16904941       2.15427640      -3.18873637
H        4.84545617       1.79033708      -0.15323913
H        3.79714539       0.37810802      -0.29176046
H        3.27981814       1.80671517       0.65769272
H        4.96292511       3.07370771      -2.08003151
H        5.86300606       6.40128382      -2.92133437
H        7.84321424       6.05331028      -1.49772526
H        9.70667003       4.81282611      -0.82269481
H       10.49811601       3.92054595      -2.12136653
H        9.49005629       3.06447787      -0.91393172
H        6.63393609       2.71709352      -4.96387070
O       -2.61568376      -6.50306705      -5.13024250
C       -2.62610390      -5.47867390      -4.48606637
N       -1.59545616      -4.92526961      -3.76261547
C       -1.99565650      -3.74791787      -3.14367146
C       -1.21004369      -2.94669364      -2.34093409
C       -1.79774292      -1.79774292      -1.79774292
C       -3.15251616      -1.47115249      -2.05626905
C       -3.79923452      -0.24101912      -1.47800000
C       -3.92270956      -2.31577619      -2.88167074
C       -3.32841022      -3.44334085      -3.42103071
C       -3.81774629      -4.51180517      -4.30876587
N       -4.94661734      -4.73530418      -4.90373012
C       -6.02173257      -3.85745735      -4.77718896
C       -7.02989717      -4.11766201      -3.85010113
C       -8.12677606      -3.25953821      -3.73676762
C       -8.24009001      -2.12868202      -4.56014871
C       -9.43594148      -1.23049863      -4.41052718
C       -7.23128702      -1.88770303      -5.50688586
Br      -7.28531103      -0.38783768      -6.67155612
C       -6.13832711      -2.75262028      -5.62155245
H       -0.68343922      -5.35375068      -3.70574916
H       -0.17412434      -3.19831506      -2.13962278
H       -4.85085553      -0.16343017      -1.77474668
H       -3.29232429       0.66106538      -1.83575497
H       -3.77259095      -0.27239255      -0.38385709
H       -4.96080094      -2.07602223      -3.07984117
H       -6.96480371      -5.00092508      -3.21989547
H       -8.89881437      -3.49012036      -3.00531505
H      -10.11556432      -1.59446336      -3.63216326
H      -10.00482311      -1.19029961      -5.34490577
H       -9.12314922      -0.22141205      -4.12390462
H       -5.36918926      -2.57672114      -6.36898991
O       -6.81078880       4.55599634       2.88220816
C       -5.70677405       4.06436942       2.81970070
N       -5.19091373       3.27045195       1.82197556
C       -3.88888575       2.88451714       2.11384294
C       -3.08533508       2.08423518       1.32810115
C       -1.79774292       1.79774292       1.79774292
C       -1.33671381       2.30482481       3.03839908
C        0.04368815       2.00403774       3.55790405
C       -2.18832568       3.11908155       3.81274926
C       -3.45527576       3.40366474       3.33384128
C       -4.57327602       4.20534533       3.85969598
N       -4.73313700       4.93295234       4.91956231
C       -3.71026029       5.09359441       5.85252418
C       -3.68595959       4.30783539       7.00386533
C       -2.68152119       4.48214030       7.95942041
C       -1.68732046       5.45712332       7.78447695
C       -0.62478088       5.61664122       8.83554518
C       -1.73357390       6.25943927       6.63286273
Br      -0.43912442       7.60869508       6.29688534
C       -2.74434329       6.08613728       5.68201927
H       -5.72365215       3.01582057       1.00346634
H       -3.43915037       1.69269031       0.38022150
H        0.21445856       2.46811123       4.53537970
H        0.80315915       2.39636444       2.87380859
H        0.17924911       0.92480396       3.68328574
H       -1.84534716       3.50629947       4.76501771
H       -4.46135310       3.56257983       7.16169132
H       -2.69023004       3.85517594       8.84884381
H       -0.76913793       4.91154706       9.66150595
H       -0.65425745       6.62485617       9.26091487
H        0.36544879       5.42274955       8.41116512
H       -2.79124821       6.72187088       4.80178123
O        7.02154751      -3.73813118       3.48931461
C        5.86509117      -3.46265051       3.26310249
N        5.37473119      -2.56848605       2.34012400
C        3.98749603      -2.51431420       2.38543560
C        3.18135740      -1.71806232       1.59825169
C        1.79774292      -1.79774292       1.79774292
C        1.24341161      -2.65948472       2.77704137
C       -0.24145841      -2.75472907       3.00498298
C        2.10080945      -3.45733261       3.56201443
C        3.46603718      -3.37754501       3.34919959
C        4.62133200      -4.05485862       3.96212671
N        4.74493031      -4.96745674       4.87326460
C        3.63144492      -5.53244302       5.49249094
C        3.20683455      -5.05806602       6.73275974
C        2.10988327      -5.63791232       7.37528630
C        1.42370788      -6.71390634       6.79130652
C        0.24988259      -7.31302649       7.51405820
C        1.87319170      -7.19987174       5.55281247
Br       1.01892258      -8.65153344       4.67424882
C        2.97552798      -6.62089530       4.91607655
H        5.97718364      -2.03309609       1.73265932
H        3.60541452      -1.05544538       0.85120227
H       -0.47950882      -3.45897046       3.80957074
H       -0.74467605      -3.11131730       2.10037263
H       -0.64777056      -1.78054923       3.29606192
H        1.68524338      -4.11481206       4.31660889
H        3.74152214      -4.23834883       7.20575328
H        1.80338746      -5.24724187       8.34362046
H        0.06635323      -6.80739092       8.46844679
H        0.43458536      -8.36879326       7.73664988
H       -0.65997323      -7.21505683       6.91338228
H        3.33538582      -7.01160642       3.96790808
C       -0.00445707       0.01189536      -1.78238275
H       -0.66409135       0.67374010      -2.43557963
H        0.65740317      -0.63156657      -2.45157240
C       -0.90989263      -0.90692880      -0.91072765
C        0.90977584       0.90977584      -0.90977584
C       -0.00465871       1.77757030       0.00794375
H       -0.66225468       2.44313916      -0.64384735
H        0.64322798       2.43503045       0.67728295
C       -1.78241447       0.00034974      -0.00472694
H       -2.45427497      -0.65498947       0.64260836
H       -2.43311707       0.67328779      -0.65473579
C       -0.91132561       0.90220522       0.91563759
C       -0.01476271      -0.02253852       1.78660255
H       -0.67934791      -0.69751639       2.42135241
H        0.63392994       0.61504881       2.47327442
C        0.01484550      -1.77751727      -0.01636693
H        0.67870853      -2.42144646      -0.68295456
H       -0.62264859      -2.45592969       0.64226336
C        1.78714474       0.01002794       0.00389507
H        2.44202412       0.67113390       0.66197326
H        2.45385902      -0.65136977      -0.64189061
C        0.91606151      -0.90478549       0.90901405
