158
Properties=species:S:1:pos:R:3 pbc="F F F"
O        2.60381039       5.16452628      -6.48065664
C        2.62400511       4.49212655      -5.47471252
N        1.59122431       3.77483473      -4.91728219
C        1.99682373       3.14030113      -3.75012097
C        1.20811313       2.34650849      -2.94304980
C        1.79774292       1.79774292      -1.79774292
C        3.15377704       2.05262831      -1.47353235
C        3.80132882       1.47195280      -0.24497202
C        3.92690500       2.86955662      -2.32369487
C        3.33624149       3.39841828      -3.45812201
C        3.83445849       4.26051017      -4.54334867
N        4.98925482       4.78061643      -4.81578040
C        6.09792040       4.55720023      -4.00125826
C        6.45860340       5.49968476      -3.03937215
C        7.58579950       5.29881173      -2.23847065
C        8.38107396       4.15306424      -2.39478254
C        9.58737546       3.97326875      -1.51632308
C        8.02302196       3.22078883      -3.38206512
C        6.89774605       3.42876635      -4.18598743
H        0.66976238       3.74524038      -5.32793630
H        0.16904941       2.15427640      -3.18873637
H        4.84545617       1.79033708      -0.15323913
H        3.79714539       0.37810802      -0.29176046
H        3.27981814       1.80671517       0.65769272
H        4.96292511       3.07370771      -2.08003151
H        5.86300606       6.40128382      -2.92133437
H        7.84321424       6.05331028      -1.49772526
H        9.70667003       4.81282611      -0.82269481
H       10.49811601       3.92054595      -2.12136653
H        9.49005629       3.06447787      -0.91393172
H        6.63393609       2.71709352      -4.96387070
C        8.78553189       2.02014306      -3.60707252
C        9.42413396       1.01460222      -3.79551622
Br      10.45669949      -0.61127227      -4.10021375
O       -2.64102775      -6.54681887      -5.06114669
C       -2.64444178      -5.51104332      -4.43535907
N       -1.61693196      -4.96298333      -3.70342595
C       -2.00682457      -3.76789972      -3.11252153
C       -1.22123345      -2.96637412      -2.31006385
C       -1.79774292      -1.79774292      -1.79774292
C       -3.14170650      -1.45207424      -2.08615696
C       -3.77638092      -0.20062151      -1.54125122
C       -3.91226105      -2.29766196      -2.91023348
C       -3.32883836      -3.44496128      -3.41898214
C       -3.82153208      -4.52036906      -4.29641618
N       -4.94359150      -4.73460356      -4.90745659
C       -6.00489157      -3.83587857      -4.81560875
C       -7.03368299      -4.06170561      -3.90227171
C       -8.11686057      -3.18255127      -3.82367005
C       -8.19544543      -2.06478603      -4.66868927
C       -9.37748561      -1.14319661      -4.55628506
C       -7.16601442      -1.85854127      -5.60132022
C       -6.08685268      -2.74444190      -5.68120526
H       -0.71386448      -5.40633771      -3.62273688
H       -0.19367735      -3.23251807      -2.08586676
H       -4.82106949      -0.10988631      -1.85807658
H       -3.24720978       0.68587389      -1.90567798
H       -3.76953207      -0.21288405      -0.44642447
H       -4.94225594      -2.04328739      -3.13112100
H       -6.99548086      -4.93456329      -3.25558010
H       -8.90563261      -3.38641311      -3.10220407
H      -10.07708111      -1.48118391      -3.78392592
H       -9.92905144      -1.10972613      -5.50125092
H       -9.05178002      -0.13479698      -4.28188888
H       -5.30167735      -2.59548082      -6.41774215
C       -7.17110585      -0.73706675      -6.50457487
C       -7.17536992       0.20216816      -7.26105065
Br      -7.18226456       1.72083158      -8.48420799
O       -7.02014349       3.75676470       3.47208512
C       -5.86397156       3.47637627       3.25049634
N       -5.37344832       2.58449405       2.32539887
C       -3.98677509       2.52276507       2.37770566
C       -3.18068459       1.72641342       1.59057340
C       -1.79774292       1.79774292       1.79774292
C       -1.24407121       2.65139466       2.78447183
C        0.24005476       2.73760379       3.02070461
C       -2.10139946       3.44962440       3.56913263
C       -3.46588514       3.37816081       3.34873583
C       -4.62082694       4.05833483       3.95915556
N       -4.74443940       4.96677688       4.87443537
C       -3.63128675       5.52262075       5.50247138
C       -3.21572358       5.03950530       6.74243143
C       -2.11914953       5.61017371       7.39375865
C       -1.42426289       6.68558243       6.81907541
C       -0.25113916       7.27469734       7.55113079
C       -1.86464736       7.18040790       5.58082065
C       -2.96663225       6.61060735       4.93526023
H       -5.97548890       2.05548710       1.71196305
H       -3.60426604       1.06997434       0.83782180
H        0.47754951       3.43634572       3.83023618
H        0.74990422       3.09627532       2.12064277
H        0.63970558       1.75977870       3.30876747
H       -1.68637562       4.10093133       4.32935738
H       -3.75719558       4.22014950       7.20827918
H       -1.81982317       5.21281333       8.36161329
H       -0.07530576       6.76309716       8.50378802
H       -0.43146920       8.33024107       7.77831822
H        0.66134706       7.17508213       6.95473082
H       -3.31942537       7.00818413       3.98729082
C       -1.20783620       8.28081967       4.92409160
C       -0.65775686       9.20241453       4.37408101
Br       0.23167492      10.69255546       3.48476042
O        5.78009939      -5.99234907       2.47654485
C        4.94516985      -5.11786769       2.52780664
N        4.30331400      -4.50033842       1.47968882
C        3.41908977      -3.53146855       1.93668751
C        2.62219038      -2.72565628       1.14982475
C        1.79774292      -1.79774292       1.79774292
C        1.78560004      -1.68386937       3.21046829
C        0.90673370      -0.68997332       3.92154663
C        2.61495246      -2.52538822       3.97981581
C        3.41826864      -3.44551154       3.32900160
C        4.37421514      -4.46036905       3.80373314
N        4.75562725      -4.85169719       4.97832720
C        4.22852231      -4.28865063       6.13920593
C        4.92146521      -3.27568447       6.80051063
C        4.41592671      -2.72579183       7.98136335
C        3.20999301      -3.18975994       8.52916778
C        2.69942188      -2.57524431       9.80230109
C        2.53107664      -4.22637069       7.86842859
C        3.04377329      -4.77847888       6.69024766
H        4.48490997      -4.74141365       0.51661544
H        2.63400138      -2.80978637       0.06827442
H        1.04409799      -0.73764186       5.00729253
H       -0.14849764      -0.89834486       3.71716665
H        1.15087131       0.33039855       3.60836784
H        2.61554938      -2.44090589       5.06020906
H        5.86678451      -2.92075349       6.39808625
H        4.98051738      -1.93782267       8.47590974
H        3.37574429      -1.79598123      10.17046542
H        2.61885055      -3.33268734      10.58849060
H        1.72341788      -2.10793778       9.63711022
H        2.52836454      -5.59504175       6.19149402
C        1.28877681      -4.75958801       8.36438265
C        0.24835071      -5.20615751       8.77974417
Br      -1.43393030      -5.92822264       9.45134863
C       -0.00445707       0.01189536      -1.78238275
H       -0.66409135       0.67374010      -2.43557963
H        0.65740317      -0.63156657      -2.45157240
C       -0.90989263      -0.90692880      -0.91072765
C        0.90977584       0.90977584      -0.90977584
C       -0.00465871       1.77757030       0.00794375
H       -0.66225468       2.44313916      -0.64384735
H        0.64322798       2.43503045       0.67728295
C       -1.78241447       0.00034974      -0.00472694
H       -2.45427497      -0.65498947       0.64260836
H       -2.43311707       0.67328779      -0.65473579
C       -0.91132561       0.90220522       0.91563759
C       -0.01476271      -0.02253852       1.78660255
H       -0.67934791      -0.69751639       2.42135241
H        0.63392994       0.61504881       2.47327442
C        0.01484550      -1.77751727      -0.01636693
H        0.67870853      -2.42144646      -0.68295456
H       -0.62264859      -2.45592969       0.64226336
C        1.78714474       0.01002794       0.00389507
H        2.44202412       0.67113390       0.66197326
H        2.45385902      -0.65136977      -0.64189061
C        0.91606151      -0.90478549       0.90901405
