153
Properties=species:S:1:pos:R:3 pbc="F F F"
C        0.00000000       0.00000000       0.00000000
O        7.03153997       0.04633319      -5.72663282
C        6.15369333      -0.05841598      -4.86729480
N        5.39853084       1.04227938      -4.51393085
N        4.35040007       0.93816680      -3.66003234
C        3.72116994       2.00743940      -3.25546771
C        4.12952755       3.40514510      -3.67167814
C        2.57015529       1.84157790      -2.37128049
C        1.62707616       2.77020210      -1.95049567
C        0.64354520       2.20496194      -1.07928510
C        0.87161505       0.87161505      -0.87161505
S        2.22681021       0.29159353      -1.69224355
C        5.86602095      -1.36654946      -4.13480413
O        6.30513518      -1.21383521      -2.78538118
C        6.96517931      -2.29544842      -2.26479563
C        8.27420411      -2.61981949      -2.66575453
C        8.97511123      -1.92036676      -3.79578087
C        8.95877660      -3.63420818      -1.97706451
C        8.36980030      -4.26888949      -0.88579624
Br       9.34574438      -5.57076023       0.07821281
C        7.08047134      -3.93261575      -0.48185841
C        6.36118039      -2.94787704      -1.17312644
C        4.98396068      -2.56747473      -0.70551186
H        5.63490741       1.91631637      -4.96763201
H        5.19423472       3.55352968      -3.46026167
H        3.58036136       4.18463483      -3.14688406
H        3.96214062       3.52420131      -4.74851416
H        1.61930789       3.80972614      -2.24850144
H       -0.18005910       2.76125689      -0.64142424
H        6.35328953      -2.18789676      -4.67108541
H        4.78801815      -1.56828880      -4.14672351
H        8.78819109      -0.84451728      -3.76594864
H        8.64643866      -2.32913129      -4.75603235
H       10.06088326      -2.05306686      -3.73181102
H        9.97056374      -3.90125036      -2.27423248
H        6.63879162      -4.42263945       0.38225481
H        5.00055186      -1.57602754      -0.24537982
H        4.60346925      -3.27969542       0.03473755
H        4.28022466      -2.57082708      -1.54505786
O       -1.47950205      -2.84095617      -8.48404775
C       -1.25269792      -2.31999807      -7.38987615
N       -1.95662160      -2.72499546      -6.27312402
N       -1.65363085      -2.25838414      -5.03658421
C       -2.40131683      -2.56947289      -4.01328734
C       -3.64742400      -3.42110439      -4.13782240
C       -2.00928857      -2.07976952      -2.69395560
C       -2.50375988      -2.40615282      -1.43786122
C       -1.84277310      -1.70258487      -0.38243427
C       -0.87161505      -0.87161505      -0.87161505
S       -0.73889588      -0.91889875      -2.55285266
C       -0.22774528      -1.20430533      -7.20222501
O       -0.94304220       0.00157141      -6.93521036
C       -0.46712276       1.11257504      -7.57997880
C       -0.65295862       1.29539459      -8.96257513
C       -1.22802271       0.23077527      -9.85327790
C       -0.29375669       2.52658730      -9.53446353
C        0.18817043       3.56221665      -8.73709414
Br       0.58293414       5.23865230      -9.51835777
C        0.35434310       3.38239300      -7.36645010
C        0.03638631       2.15201454      -6.77483063
C        0.18538682       1.98126110      -5.28864573
H       -2.67131217      -3.42730074      -6.42024289
H       -4.30466763      -2.99790839      -4.90545005
H       -4.21930798      -3.47897713      -3.21359515
H       -3.36194961      -4.43656435      -4.43634212
H       -3.29642940      -3.12018684      -1.26091923
H       -2.07879293      -1.81546459       0.67163549
H        0.41033040      -1.15568794      -8.09112065
H        0.42273776      -1.43842848      -6.35076213
H       -2.06767222      -0.27295298      -9.36899726
H       -0.45706687      -0.49959907     -10.11667378
H       -1.61308497       0.65893966     -10.78548211
H       -0.42723488       2.68592118     -10.60223216
H        0.71440371       4.20408462      -6.75238569
H       -0.79736082       1.93923247      -4.81177578
H        0.74307405       2.81360818      -4.84571851
H        0.74258522       1.06555204      -5.06259270
O       -7.90564909       0.48215399       4.41670289
C       -6.90668788       0.34947906       3.70640521
N       -5.92995456       1.32549553       3.69929099
N       -4.76715280       1.15959980       3.02184660
C       -3.90744738       2.13784059       2.93878910
C       -4.15774770       3.50236292       3.54624016
C       -2.64917808       1.89715966       2.23667595
C       -1.50529495       2.68115837       2.16132060
C       -0.47603589       2.08430724       1.36744911
C       -0.87161505       0.87161505       0.87161505
S       -2.43548323       0.44024745       1.33491662
C       -6.69751400      -0.85398685       2.79074847
O       -6.83664162      -0.40355050       1.44359004
C       -7.54908936      -1.23854713       0.62398430
C       -8.94581197      -1.36375744       0.73808463
C       -9.73001215      -0.73347273       1.85398592
C       -9.63861618      -2.10183616      -0.23514709
C       -8.95979041      -2.65402565      -1.31905770
Br      -9.92764640      -3.56950783      -2.66136723
C       -7.57963181      -2.51300393      -1.43691388
C       -6.85851055      -1.81075445      -0.46132632
C       -5.37385386      -1.63376874      -0.61808731
H       -6.10554389       2.14390791       4.26940400
H       -5.12325241       3.88614122       3.19863244
H       -3.39899285       4.23505862       3.27782878
H       -4.18498529       3.41149100       4.63837980
H       -1.38778763       3.63757644       2.65217140
H        0.49547689       2.53386751       1.18423141
H       -7.40534293      -1.64102324       3.07215850
H       -5.68913466      -1.25979415       2.93711235
H       -9.36981841       0.27630179       2.06350225
H       -9.66373667      -1.34755091       2.75715397
H      -10.78977895      -0.64141645       1.59126491
H      -10.71835391      -2.21235808      -0.16244997
H       -7.06398532      -2.93333148      -2.29675649
H       -5.14093280      -0.59687753      -0.87415113
H       -4.97723560      -2.27726044      -1.41093888
H       -4.85586027      -1.90863995       0.30723511
O        1.37492547      -2.97335365       8.45622685
C        1.15868895      -2.43604524       7.36783796
N        1.89083746      -2.80660943       6.25729418
N        1.60212269      -2.32234620       5.02413032
C        2.37449671      -2.59999307       4.00958728
C        3.63400088      -3.43048736       4.14186255
C        1.99787916      -2.09273297       2.69240156
C        2.52175211      -2.38596687       1.44005495
C        1.86730085      -1.67493130       0.38556009
C        0.87161505      -0.87161505       0.87161505
S        0.70854011      -0.95324650       2.54886068
C        0.11642687      -1.33626844       7.18158032
O        0.81356623      -0.11243567       6.95067925
C        0.30473517       0.97708378       7.60687513
C        0.46129739       1.13707016       8.99591192
C        1.03977225       0.06663603       9.87738912
C        0.06821939       2.35029171       9.58370525
C       -0.41833904       3.39170949       8.79675558
Br      -0.85931061       5.04538270       9.60146465
C       -0.55552437       3.23485728       7.42009566
C       -0.20332505       2.02205613       6.81181096
C       -0.32136533       1.87678247       5.32014561
H        2.61585957      -3.49815207       6.40484415
H        4.26869321      -3.00976709       4.92956577
H        4.22398704      -3.46015999       3.22773322
H        3.36233341      -4.45656626       4.41595642
H        3.33098117      -3.08163482       1.26491948
H        2.12500230      -1.76338111      -0.66576139
H       -0.53889426      -1.31640992       8.05896252
H       -0.51353326      -1.56626641       6.31371971
H        1.89769687      -0.41209552       9.39983006
H        0.27804057      -0.68282988      10.11246926
H        1.39922118       0.48413365      10.82453988
H        0.17874914       2.49179836      10.65659508
H       -0.91961348       4.06120434       6.81471518
H        0.67071030       1.86211090       4.86130473
H       -0.88639944       2.70685548       4.88229120
H       -0.85678715       0.95531185       5.06655444
