161
Properties=species:S:1:pos:R:3 pbc="F F F"
C        0.00000000       0.00000000       0.00000000
O        7.03153997       0.04633319      -5.72663282
C        6.15369333      -0.05841598      -4.86729480
N        5.39853084       1.04227938      -4.51393085
N        4.35040007       0.93816680      -3.66003234
C        3.72116994       2.00743940      -3.25546771
C        4.12952755       3.40514510      -3.67167814
C        2.57015529       1.84157790      -2.37128049
C        1.62707616       2.77020210      -1.95049567
C        0.64354520       2.20496194      -1.07928510
C        0.87161505       0.87161505      -0.87161505
S        2.22681021       0.29159353      -1.69224355
C        5.86602095      -1.36654946      -4.13480413
O        6.30513518      -1.21383521      -2.78538118
C        6.96517931      -2.29544842      -2.26479563
C        8.27420411      -2.61981949      -2.66575453
C        8.97511123      -1.92036676      -3.79578087
C        8.95877660      -3.63420818      -1.97706451
C        8.36980030      -4.26888949      -0.88579624
C        7.08047134      -3.93261575      -0.48185841
C        6.36118039      -2.94787704      -1.17312644
C        4.98396068      -2.56747473      -0.70551186
H        5.63490741       1.91631637      -4.96763201
H        5.19423472       3.55352968      -3.46026167
H        3.58036136       4.18463483      -3.14688406
H        3.96214062       3.52420131      -4.74851416
H        1.61930789       3.80972614      -2.24850144
H       -0.18005910       2.76125689      -0.64142424
H        6.35328953      -2.18789676      -4.67108541
H        4.78801815      -1.56828880      -4.14672351
H        8.78819109      -0.84451728      -3.76594864
H        8.64643866      -2.32913129      -4.75603235
H       10.06088326      -2.05306686      -3.73181102
H        9.97056374      -3.90125036      -2.27423248
H        6.63879162      -4.42263945       0.38225481
H        5.00055186      -1.57602754      -0.24537982
H        4.60346925      -3.27969542       0.03473755
H        4.28022466      -2.57082708      -1.54505786
C        9.11290386      -5.26016021      -0.15178026
C        9.73525309      -6.09034943       0.46295813
Br      10.74153916      -7.43269519       1.45693812
O       -8.30683413      -3.49803671      -0.99963513
C       -7.19243569      -3.05207659      -0.71805986
N       -6.14020226      -3.21784868      -1.59669014
N       -4.93326947      -2.64145912      -1.37387061
C       -3.92375381      -2.90144929      -2.15887396
C       -4.01739448      -3.86763239      -3.32132391
C       -2.65561099      -2.22194535      -1.90545735
C       -1.50162661      -2.16972068      -2.67642664
C       -0.46762630      -1.38670608      -2.07345987
C       -0.87161505      -0.87161505      -0.87161505
S       -2.44900244      -1.30395923      -0.45768562
C       -6.89846903      -2.33058527       0.59477868
O       -6.07520860      -3.18718141       1.38570885
C       -6.40517654      -3.24340907       2.71405908
C       -7.55556131      -3.92159385       3.15701600
C       -8.58209015      -4.48259122       2.21415604
C       -7.75025804      -4.08896921       4.53759433
C       -6.79550118      -3.63690811       5.44570223
C       -5.65015714      -2.98135442       5.00179755
C       -5.44735926      -2.77004287       3.63097235
C       -4.18968174      -2.09352649       3.16121041
H       -6.33457080      -3.74495951      -2.43932548
H       -4.41216100      -4.82694748      -2.96891759
H       -3.05605195      -4.06312280      -3.79270550
H       -4.69993285      -3.45921092      -4.07571231
H       -1.38610010      -2.65603564      -3.63539974
H        0.51094662      -1.21965526      -2.51391339
H       -7.84702341      -2.06076256       1.07130778
H       -6.36230308      -1.39563645       0.39148667
H       -8.10490955      -4.95999362       1.35528072
H       -9.25601482      -3.69078866       1.87346376
H       -9.19161556      -5.25086965       2.70285779
H       -8.63506078      -4.60804438       4.89955930
H       -4.90406219      -2.64921146       5.71937630
H       -3.52908233      -2.81679540       2.67597359
H       -3.64411605      -1.64174688       3.99682665
H       -4.42830649      -1.28628259       2.46013364
C       -6.98151296      -3.87641853       6.85340758
C       -7.13729784      -4.07700851       8.03236082
Br      -7.38918880      -4.40134554       9.93862849
O       -8.43412012       3.06681247       1.30357338
C       -7.31259961       2.66957190       0.98040063
N       -6.22349991       2.94947871       1.78176245
N       -4.99837590       2.43122606       1.51899725
C       -3.96303410       2.79680215       2.22424081
C       -4.04843640       3.82545751       3.33245688
C       -2.67235965       2.17746253       1.93319151
C       -1.47471825       2.23942367       2.63363202
C       -0.43120496       1.48196219       2.01462510
C       -0.87161505       0.87161505       0.87161505
S       -2.49383935       1.18585571       0.53095223
C       -7.05128946       1.88708853      -0.30410236
O       -6.32922912       2.73968999      -1.19223796
C       -6.73824707       2.69514466      -2.49886520
C       -7.95174979       3.27724941      -2.90886004
C       -8.95455144       3.83476997      -1.93879607
C       -8.23581608       3.34806999      -4.28225315
C       -7.30920628       2.89708205      -5.21958128
C       -6.10206012       2.33729466      -4.80964078
C       -5.80778948       2.22256408      -3.44392377
C       -4.48592896       1.64996760      -3.01389876
H       -6.40081632       3.51518020       2.60285928
H       -4.52102537       4.73692019       2.95008050
H       -3.07526520       4.10473666       3.73187839
H       -4.65988552       3.42532698       4.14964358
H       -1.33401545       2.78952339       3.55399663
H        0.57959172       1.39908859       2.40312516
H       -8.00745481       1.53416489      -0.70514152
H       -6.44791761       0.99892882      -0.08039358
H       -8.45872011       4.39074974      -1.13984740
H       -9.55780524       3.02773799      -1.51220351
H       -9.63729128       4.53510099      -2.43276485
H       -9.17023858       3.79195048      -4.61864320
H       -5.37971533       2.00542815      -5.55124612
H       -3.84401200       2.43861509      -2.61272295
H       -3.96288158       1.18005799      -3.85390330
H       -4.63365552       0.87481982      -2.25401989
C       -7.59061229       3.03861854      -6.62470692
C       -7.82628983       3.15715535      -7.80149965
Br      -8.20736047       3.34881934      -9.70427396
O        4.14483555      -0.61739552       8.04227490
C        3.62423513      -0.39035490       6.94798211
N        3.61950008      -1.36518785       5.97005315
N        2.95613248      -1.19228956       4.80017716
C        3.05660146      -2.07923434       3.84824126
C        3.92688175      -3.31301118       3.96645785
C        2.28788543      -1.87168529       2.62344297
C        2.06653808      -2.72830833       1.55292752
C        1.24562088      -2.14491120       0.53726016
C        0.87161505      -0.87161505       0.87161505
S        1.47895309      -0.36859591       2.36309830
C        2.99106684       0.95363606       6.59684484
O        3.83208666       1.59171807       5.63631256
C        4.02883327       2.93230339       5.83799664
C        4.84363478       3.40608042       6.88258479
C        5.41518478       2.50500589       7.94034645
C        5.14270843       4.77707273       6.93599722
C        4.68289987       5.63972437       5.94353155
C        3.89093625       5.16336510       4.90214285
C        3.54833902       3.80537912       4.84346988
C        2.72317742       3.29589476       3.69471514
H        4.08994904      -2.23317852       6.19572823
H        4.94423585      -3.01778355       4.24600667
H        3.99391387      -3.87883911       3.03912727
H        3.52082618      -3.96742268       4.74660722
H        2.45855043      -3.73389400       1.48509104
H        0.95390227      -2.64844570      -0.37972594
H        2.84953644       1.53027898       7.51722072
H        1.99745222       0.79235632       6.16135695
H        5.77374826       1.56937550       7.50524969
H        4.66243346       2.29534011       8.70624637
H        6.27391567       2.97082051       8.43653226
H        5.76865545       5.16281111       7.73770152
H        3.55323970       5.84343637       4.12409403
H        3.34019425       2.69332114       3.02303103
H        2.29488949       4.12074016       3.11488694
H        1.88535005       2.69367978       4.06278516
C        5.05502839       7.03033669       5.97983222
C        5.36668602       8.19497451       6.01023403
Br       5.87061004      10.07809537       6.05939118
