174
Properties=species:S:1:pos:R:3 pbc="F F F"
O        7.94144399       0.95623721      -6.63653684
C        7.06359735       0.85148805      -5.77719882
N        6.30843487       1.95218341      -5.42383487
N        5.26030409       1.84807082      -4.56993637
C        4.63107397       2.91734343      -4.16537174
C        5.03943157       4.31504912      -4.58158216
C        3.48005932       2.75148193      -3.28118452
C        2.53698018       3.68010612      -2.86039970
C        1.55344922       3.11486597      -1.98918913
C        1.78151908       1.78151908      -1.78151908
S        3.13671424       1.20149755      -2.60214758
C        6.77592497      -0.45664543      -5.04470815
O        7.21503920      -0.30393119      -3.69528521
C        7.87508334      -1.38554439      -3.17469966
C        9.18410813      -1.70991547      -3.57565856
C        9.88501525      -1.01046274      -4.70568490
C        9.86868062      -2.72430416      -2.88696853
C        9.27970433      -3.35898547      -1.79570027
Br      10.25564840      -4.66085621      -0.83169122
C        7.99037536      -3.02271173      -1.39176244
C        7.27108441      -2.03797302      -2.08303047
C        5.89386470      -1.65757070      -1.61541588
H        6.54481144       2.82622039      -5.87753603
H        6.10413874       4.46343371      -4.37016570
H        4.49026539       5.09453885      -4.05678808
H        4.87204465       4.43410533      -5.65841818
H        2.52921192       4.71963016      -3.15840547
H        0.72984492       3.67116092      -1.55132826
H        7.26319356      -1.27799273      -5.58098944
H        5.69792217      -0.65838478      -5.05662753
H        9.69809512       0.06538674      -4.67585267
H        9.55634269      -1.41922727      -5.66593637
H       10.97078728      -1.14316284      -4.64171504
H       10.88046776      -2.99134633      -3.18413650
H        7.54869564      -3.51273543      -0.52764922
H        5.91045589      -0.66612352      -1.15528384
H        5.51337327      -2.36979140      -0.87516648
H        5.19012868      -1.66092306      -2.45496189
O       -2.85226742      -3.22062450      -9.46132612
C       -2.57750532      -2.76608358      -8.34869533
N       -3.15702309      -3.30857198      -7.21885807
N       -2.79101446      -2.91252150      -5.97477532
C       -3.42855796      -3.35822952      -4.92700165
C       -4.61370352      -4.29582872      -5.02653062
C       -2.96910043      -2.93822319      -3.60540214
C       -3.33506360      -3.39608224      -2.34634016
C       -2.64547198      -2.72216704      -1.28986530
C       -1.78151908      -1.78151908      -1.78151908
S       -1.78152721      -1.69253086      -3.46630130
C       -1.62677249      -1.58853931      -8.14867589
O       -2.40610409      -0.46747408      -7.73281506
C       -2.06780267       0.72321220      -8.31964813
C       -2.37752982       0.99299307      -9.66531448
C       -2.94153948      -0.04514616     -10.59355177
C       -2.15832632       2.28830767     -10.16132635
C       -1.69225000       3.29708409      -9.32125322
Br      -1.48774951       5.05342077      -9.99215467
C       -1.40325346       3.02958759      -7.98576020
C       -1.57993201       1.73693479      -7.47314464
C       -1.29937127       1.46845959      -6.02079820
H       -3.82691009      -4.05325019      -7.36840759
H       -5.36035972      -3.87093288      -5.70644555
H       -5.10335938      -4.46830364      -4.06992930
H       -4.27832705      -5.25990828      -5.42633284
H       -4.05547637      -4.18285127      -2.16891991
H       -2.78673233      -2.93193414      -0.23366763
H       -1.06778851      -1.42256415      -9.07583760
H       -0.89417244      -1.83229688      -7.36969561
H       -3.69956059      -0.64956908     -10.09020485
H       -2.14203031      -0.68936682     -10.97165467
H       -3.43128787       0.41888145     -11.45693306
H       -2.38889764       2.51550051     -11.19986081
H       -1.05713187       3.82956112      -7.33603868
H       -2.23463119       1.31197088      -5.47695590
H       -0.77139866       2.30770002      -5.55504971
H       -0.65908370       0.58632628      -5.91141009
O       -8.22594376       1.04138416       6.26689013
C       -7.30988264       0.93359625       5.44880533
N       -6.48207718       2.00887506       5.19350091
N       -5.39645285       1.89234857       4.38950986
C       -4.69309563       2.94561440       4.07507910
C       -5.05170352       4.34023424       4.54412510
C       -3.50637996       2.76354599       3.24279981
C       -2.49629194       3.66060032       2.92059374
C       -1.49755053       3.08852814       2.07142564
C       -1.78151908       1.78151908       1.78151908
S       -3.20628818       1.23386228       2.50020890
C       -7.05019238      -0.34920859       4.66300390
O       -7.40827541      -0.10502065       3.30313846
C       -8.09356166      -1.12203346       2.69271041
C       -9.43690068      -1.39591980       3.00887035
C      -10.16080766      -0.71822350       4.13765325
C      -10.13425857      -2.33605579       2.23314222
C       -9.52076451      -2.94514201       1.14079663
Br     -10.50857131      -4.14245101       0.06036311
C       -8.19630509      -2.65818201       0.82130300
C       -7.46596431      -1.74960105       1.59977861
C       -6.04821317      -1.42009900       1.22359571
H       -6.69772915       2.87015939       5.68067933
H       -6.09469870       4.55581957       4.28721988
H       -4.43646408       5.11487867       4.09024957
H       -4.93626508       4.39541849       5.63288459
H       -2.45175239       4.68177368       3.27372148
H       -0.62458108       3.62151366       1.70623936
H       -7.60643866      -1.16948633       5.12923793
H       -5.98598496      -0.60859768       4.71877766
H       -9.91824581       0.34622972       4.17485900
H       -9.90505856      -1.19213103       5.09012426
H      -11.24694160      -0.78931079       4.01170868
H      -11.17271516      -2.56338601       2.46392878
H       -7.73450793      -3.12665303      -0.04424547
H       -5.98990058      -0.40712574       0.81684137
H       -5.66532311      -2.11317541       0.46660065
H       -5.39141248      -1.50361293       2.09636795
O        1.94938432      -4.34797513       9.23685858
C        1.76619412      -3.75394891       8.17214119
N        2.58925045      -4.00335786       7.09184484
N        2.34644884      -3.45704065       5.87482179
C        3.19738751      -3.61780043       4.89860119
C        4.49866872      -4.37504731       5.06234683
C        2.87076158      -3.04847398       3.59349020
C        3.49011138      -3.22443138       2.36294323
C        2.85685477      -2.48700193       1.31364761
C        1.78151908      -1.78151908       1.78151908
S        1.51990404      -1.98463538       3.43581995
C        0.66669174      -2.71139406       7.98590189
O        1.29386329      -1.43379631       7.87873363
C        0.67368364      -0.42425182       8.56630314
C        0.73227190      -0.34762849       9.96995083
C        1.32458897      -1.43618077      10.81946767
C        0.22339605       0.79687812      10.60482707
C       -0.28135461       1.85597788       9.85375161
Br      -0.88077881       3.42167111      10.72893334
C       -0.32162771       1.78286081       8.46391459
C        0.14779058       0.63758622       7.80593750
C        0.13298786       0.58484962       6.30357164
H        3.34807617      -4.65659927       7.24389243
H        5.05355753      -3.96891470       5.91526591
H        5.14520778      -4.30693180       4.18945274
H        4.27933536      -5.43204331       5.25318949
H        4.35320188      -3.85504632       2.19899934
H        3.18496804      -2.48901931       0.27834675
H       -0.04196358      -2.79091327       8.81724058
H        0.10882102      -2.92196873       7.06537517
H        2.24060118      -1.82759414      10.37113921
H        0.60125634      -2.24569878      10.95609667
H        1.59564797      -1.06104562      11.81264590
H        0.25710045       0.87327163      11.68942911
H       -0.70143243       2.62334196       7.88838382
H        1.15053229       0.66268518       5.91176910
H       -0.45762479       1.40535112       5.88172426
H       -0.32303753      -0.34930510       5.95789994
C       -0.00445707       0.01189536      -1.78238275
H       -0.66409135       0.67374010      -2.43557963
H        0.65740317      -0.63156657      -2.45157240
C       -0.90989263      -0.90692880      -0.91072765
C        0.90977584       0.90977584      -0.90977584
C       -0.00465871       1.77757030       0.00794375
H       -0.66225468       2.44313916      -0.64384735
H        0.64322798       2.43503045       0.67728295
C       -1.78241447       0.00034974      -0.00472694
H       -2.45427497      -0.65498947       0.64260836
H       -2.43311707       0.67328779      -0.65473579
C       -0.91132561       0.90220522       0.91563759
C       -0.01476271      -0.02253852       1.78660255
H       -0.67934791      -0.69751639       2.42135241
H        0.63392994       0.61504881       2.47327442
C        0.01484550      -1.77751727      -0.01636693
H        0.67870853      -2.42144646      -0.68295456
H       -0.62264859      -2.45592969       0.64226336
C        1.78714474       0.01002794       0.00389507
H        2.44202412       0.67113390       0.66197326
H        2.45385902      -0.65136977      -0.64189061
C        0.91606151      -0.90478549       0.90901405
