166
Properties=species:S:1:pos:R:3 pbc="F F F"
C       14.41067681       8.06500991      -6.15319066
O       13.23393096       8.80637185      -5.84482965
C       12.07800361       8.07860434      -5.77761303
C       11.83178913       6.90019697      -6.47829266
C       10.61069307       6.23053381      -6.32832224
C        9.61839447       6.73674891      -5.48122574
O        8.42549641       6.09883358      -5.24392193
C        7.91561264       5.32849216      -6.32800511
C        6.52100155       4.78336924      -6.05015429
O        5.80226037       4.38466556      -6.96864525
N        6.20535007       4.70100810      -4.70165374
N        5.05465138       4.07854803      -4.32583684
C        4.75304704       3.93444664      -3.06646603
C        5.60643360       4.46194232      -1.93326183
C        3.53292044       3.18604994      -2.77858438
C        2.46787304       2.96073118      -3.63845633
C        1.44406057       2.15537800      -3.05596337
C        1.78161121       1.78161121      -1.78161121
S        3.28085295       2.38766674      -1.28025115
C        9.87036602       7.93029137      -4.79015444
Br       8.57835620       8.68448179      -3.61934975
C       11.08499669       8.60488334      -4.95123091
H       15.27236096       8.71645427      -5.97636153
H       14.42755703       7.77135682      -7.20754163
H       14.51361967       7.19124423      -5.49993982
H       12.56892734       6.47900468      -7.15538266
H       10.47924671       5.30299541      -6.87562210
H        8.54665577       4.44968179      -6.50287537
H        7.85271891       5.94772874      -7.23016687
H        6.86586821       5.06402478      -4.02153538
H        5.97232612       5.46566594      -2.16848128
H        6.45881618       3.79425375      -1.78265384
H        5.04463758       4.54518186      -0.99987444
H        2.43176741       3.36049210      -4.64683752
H        0.52854000       1.86845235      -3.55857199
H       11.27517827       9.53521798      -4.42183305
C       -4.59837221     -12.60522294     -11.42528222
O       -5.00633890     -11.25484205     -11.62395151
C       -4.96357502     -10.45567031     -10.51497565
C       -5.10892410     -10.89887926      -9.20247540
C       -5.04055225      -9.99094074      -8.13805612
C       -4.83379097      -8.62731807      -8.37526008
O       -4.69714130      -7.69548336      -7.37562725
C       -5.42484757      -7.96579535      -6.18146699
C       -5.35342255      -6.81789008      -5.18321245
O       -6.16555517      -6.72976256      -4.26025346
N       -4.26436174      -5.97794100      -5.36570917
N       -4.00473094      -5.01620683      -4.43809848
C       -2.95993902      -4.24551533      -4.54850536
C       -1.98338436      -4.31557991      -5.70267348
C       -2.73944956      -3.30032723      -3.45777797
C       -3.67911232      -2.84201194      -2.54593629
C       -3.12637664      -1.94976477      -1.57926054
C       -1.78161121      -1.78161121      -1.78161121
S       -1.18828832      -2.65620665      -3.10427586
C       -4.70161218      -8.18884292      -9.70035673
Br      -4.41684120      -6.35573333     -10.10961322
C       -4.78346649      -9.09477088     -10.76287357
H       -4.48580882     -13.06900546     -12.41036249
H       -5.35844409     -13.17089192     -10.87711948
H       -3.62789205     -12.65779609     -10.91911557
H       -5.28314425     -11.94611324      -8.97405719
H       -5.13326178     -10.39084801      -7.13375444
H       -5.00143863      -8.83401534      -5.66375896
H       -6.48242810      -8.13119480      -6.41699161
H       -3.65567003      -6.13238529      -6.16337305
H       -2.52029068      -4.43835008      -6.64783258
H       -1.31274650      -5.16642647      -5.55655080
H       -1.39133302      -3.40208676      -5.79627410
H       -4.72204610      -3.14087611      -2.57617481
H       -3.69216606      -1.47834534      -0.78505293
H       -4.69011553      -8.75180844     -11.79030534
C      -12.61071896       4.59932746      11.41883097
O      -12.51669584       5.22565667      10.14277994
C      -11.30630135       5.11141981       9.51649982
C      -10.08084924       4.96674557      10.16268395
C       -8.89916005       4.85079421       9.41959486
C       -8.92920033       4.88625992       8.02090887
O       -7.81647928       4.71817112       7.23360151
C       -6.59303506       5.18625358       7.79282127
C       -5.43563006       5.11317745       6.80571758
O       -4.40365943       5.76126446       6.99064729
N       -5.62843440       4.20361540       5.77596211
N       -4.59861514       3.93215099       4.92827011
C       -4.72648328       3.04353414       3.98394228
C       -6.00453657       2.27693518       3.72016600
C       -3.53479328       2.78020117       3.18256031
C       -2.43252481       3.60794100       3.02659474
C       -1.41870614       3.03407545       2.20262035
C       -1.78161121       1.78161121       1.78161121
S       -3.30493582       1.30104135       2.34279365
C      -10.16583371       5.04522506       7.37975305
Br     -10.29531855       5.10156479       5.48530441
C      -11.34338125       5.17428850       8.12344119
H      -13.66591859       4.58955591      11.70970226
H      -12.06243896       5.16578830      12.17822823
H      -12.26625427       3.55983973      11.37870971
H      -10.01046121       4.94671629      11.24613718
H       -7.97443540       4.71327474       9.97015409
H       -6.29655336       4.56041248       8.64224709
H       -6.69800909       6.23333181       8.09927363
H       -6.52012281       3.72306114       5.70824441
H       -6.86927927       2.94280079       3.79439328
H       -6.10306220       1.47553942       4.45712216
H       -6.02646751       1.84746617       2.71576021
H       -2.36209264       4.58668885       3.49031554
H       -0.48287053       3.51914656       1.95354725
H      -12.30039729       5.30688160       7.62495042
C        7.42229330     -14.51632822       6.69025586
O        6.78130387     -13.56681684       7.53701175
C        6.61180673     -12.31911957       7.00329468
C        7.43126173     -11.74449134       6.03452569
C        7.15993243     -10.45791614       5.55170054
C        6.06967416      -9.72804993       6.03864503
O        5.71406517      -8.48874563       5.56544112
C        6.78969189      -7.67541687       5.10700115
C        6.34159237      -6.26485683       4.74807588
O        7.15783740      -5.34639926       4.65133453
N        4.98829755      -6.15812469       4.46158966
N        4.50409475      -4.98469892       3.97024258
C        3.24964564      -4.86561639       3.63869768
C        2.23056286      -5.97323349       3.79784140
C        2.85744685      -3.58693706       3.05317085
C        3.52330906      -2.37539504       3.16835645
C        2.89220603      -1.32293889       2.44025702
C        1.78161121      -1.78161121       1.78161121
S        1.48514382      -3.42921199       2.03441503
C        5.25821355     -10.30960904       7.02298924
Br       3.75778879      -9.38821866       7.73618029
C        5.53828414     -11.58909215       7.51373464
H        7.31147215     -15.50331553       7.15038909
H        8.49359342     -14.30883392       6.60402814
H        6.94825437     -14.55356297       5.70298638
H        8.29467759     -12.27046236       5.63817473
H        7.81273543     -10.06668919       4.77843960
H        7.21927057      -8.09138365       4.18855871
H        7.55300597      -7.58883931       5.88876924
H        4.39754597      -6.97542571       4.57845669
H        2.36831156      -6.48147720       4.75668458
H        2.35341901      -6.69566430       2.98664046
H        1.20610415      -5.59352376       3.79006597
H        4.42956785      -2.25602999       3.75349918
H        3.25029934      -0.30138843       2.40387655
H        4.91356958     -12.03489672       8.28376300
C       -0.00445707       0.01189536      -1.78238275
H       -0.66409135       0.67374010      -2.43557963
H        0.65740317      -0.63156657      -2.45157240
C       -0.90989263      -0.90692880      -0.91072765
C        0.90977584       0.90977584      -0.90977584
C       -0.00465871       1.77757030       0.00794375
H       -0.66225468       2.44313916      -0.64384735
H        0.64322798       2.43503045       0.67728295
C       -1.78241447       0.00034974      -0.00472694
H       -2.45427497      -0.65498947       0.64260836
H       -2.43311707       0.67328779      -0.65473579
C       -0.91132561       0.90220522       0.91563759
C       -0.01476271      -0.02253852       1.78660255
H       -0.67934791      -0.69751639       2.42135241
H        0.63392994       0.61504881       2.47327442
C        0.01484550      -1.77751727      -0.01636693
H        0.67870853      -2.42144646      -0.68295456
H       -0.62264859      -2.45592969       0.64226336
C        1.78714474       0.01002794       0.00389507
H        2.44202412       0.67113390       0.66197326
H        2.45385902      -0.65136977      -0.64189061
C        0.91606151      -0.90478549       0.90901405
