154
Properties=species:S:1:pos:R:3 pbc="F F F"
C        3.71703303       4.74470287      -5.36479805
O        4.25458692       4.16683843      -4.17943629
C        3.40177635       3.40575663      -3.42388804
C        2.00808512       3.53065354      -3.45712182
C        1.20480183       2.72298108      -2.64473988
C        1.79148404       1.79148404      -1.79148404
C        3.17562157       1.66251635      -1.73326652
C        3.98042046       2.47479571      -2.54401624
C        5.45253134       2.33882653      -2.47517357
N        6.02020519       1.48863935      -1.67658831
N        7.37940123       1.48015164      -1.71798227
C        8.16329950       0.59833852      -1.00031358
O        9.36556412       0.50385305      -1.24254369
C        7.56815590      -0.24961024       0.05761972
C        8.14154286      -1.49409838       0.30092816
N        7.70043734      -2.36266025       1.24753330
C        6.64429809      -1.95784125       1.99124234
C        6.02356565      -0.72700157       1.83686397
C        6.50039234       0.14681827       0.86508085
H        4.55287542       5.14563683      -5.94666440
H        3.04812950       5.57748266      -5.12614659
H        3.21144959       3.99278293      -5.98087587
H        1.51507044       4.25822271      -4.09472004
H        0.12330400       2.83265067      -2.68327291
H        3.62746518       0.93534931      -1.06296110
H        6.05451259       2.99506958      -3.12874807
H        7.86688660       2.01379397      -2.43162178
H        8.99518381      -1.84312552      -0.27569531
H        6.31016549      -2.67354923       2.73701817
H        6.04929418       1.12684561       0.74605898
C        4.90555000      -0.35605207       2.66513776
C        3.96921188      -0.04538186       3.35881705
Br       2.45523235       0.45694559       4.48043780
C       -4.31342412      -5.54849589      -3.96461394
O       -4.18927256      -4.15931844      -4.25227064
C       -3.40063265      -3.42353576      -3.40725261
C       -3.10953853      -3.79638680      -2.08993515
C       -2.30416057      -2.98335968      -1.28500254
C       -1.79148404      -1.79148404      -1.79148404
C       -2.08152439      -1.39626736      -3.09361269
C       -2.89199130      -2.20876293      -3.89847817
C       -3.20310116      -1.78231367      -5.28111662
N       -2.74877341      -0.66893583      -5.76772361
N       -3.12211266      -0.40667038      -7.04875210
C       -2.68262837       0.68781939      -7.76714262
O       -2.88662203       0.75307245      -8.97841128
C       -1.95338538       1.78705742      -7.09459797
C       -1.01114741       2.49720219      -7.83257110
N       -0.28247982       3.53238097      -7.34014494
C       -0.51990150       3.87765289      -6.05296589
C       -1.45534241       3.24394864      -5.24830634
C       -2.19364296       2.19162745      -5.78011425
H       -4.79953229      -6.02263860      -4.82300576
H       -4.95018372      -5.71200923      -3.08956581
H       -3.33189346      -6.01797447      -3.83524046
H       -3.50632763      -4.70805860      -1.65362698
H       -2.08736283      -3.28823394      -0.26363082
H       -1.68046762      -0.46325521      -3.48205276
H       -3.84434691      -2.44798225      -5.88600108
H       -3.60297954      -1.11827129      -7.59105152
H       -0.80427496       2.24723354      -8.87071218
H        0.07962195       4.70517328      -5.68439331
H       -2.95171260       1.70016286      -5.17853107
C       -1.66198196       3.66420776      -3.88658597
C       -1.83504259       4.01617478      -2.74614516
Br      -2.11486699       4.58527568      -0.90214883
C       -5.26925132       3.67405654       4.88322609
O       -4.18711886       4.25292534       4.16081744
C       -3.42340380       3.40033051       3.40768670
C       -3.32276462       2.02511755       3.64797831
C       -2.51080573       1.22218545       2.83953161
C       -1.79148404       1.79148404       1.79148404
C       -1.86680552       3.15888407       1.54571486
C       -2.67690361       3.96386166       2.35846713
C       -2.75004048       5.41884040       2.09765057
N       -2.07669512       5.97202552       1.13671222
N       -2.23889603       7.31723695       1.02140215
C       -1.66760847       8.07569372       0.01864940
O       -2.02227922       9.24115877      -0.15147713
C       -0.63359646       7.49579437      -0.86846490
C       -0.54407432       7.97455444      -2.17211244
N        0.36409413       7.53669390      -3.08235599
C        1.22889911       6.58457553      -2.66046192
C        1.23074597       6.06483766      -1.37439158
C        0.29484526       6.53657803      -0.45960301
H       -5.88833478       4.49202583       5.26481603
H       -4.90533630       3.10319876       5.74322369
H       -5.89722344       3.05541791       4.23246704
H       -3.85287910       1.54828043       4.46685367
H       -2.44432442       0.15511975       3.03978342
H       -1.30054102       3.59754485       0.72768971
H       -3.39882706       6.02143256       2.75807062
H       -2.94713977       7.79041716       1.57474542
H       -1.22052846       8.74417724      -2.53695210
H        1.94065128       6.25011883      -3.40986946
H        0.29636332       6.16589833       0.56054580
C        2.18222897       5.05516950      -0.98858036
C        2.97909599       4.20957242      -0.66546346
Br       4.26756255       2.84231345      -0.14301076
C        4.34470364      -3.94072916       5.54110115
O        4.23933280      -4.21404507       4.14748377
C        3.41340834      -3.39749720       3.42051548
C        2.35761858      -2.66409483       3.97414706
C        1.55044893      -1.86053035       3.16154351
C        1.79148404      -1.79148404       1.79148404
C        2.82690085      -2.52444956       1.22005404
C        3.63273358      -3.33285366       2.03364516
C        4.72951791      -4.11555775       1.42145578
N        4.96182609      -4.07785538       0.14575139
N        5.99758679      -4.85306447      -0.27311612
C        6.44804988      -4.89189872      -1.57799701
O        7.51294804      -5.44578802      -1.84677520
C        5.66490006      -4.26051687      -2.66449100
C        6.35523756      -3.75186924      -3.76059048
N        5.75827549      -3.15887386      -4.82690556
C        4.40697613      -3.08482870      -4.79659033
C        3.63394555      -3.58474348      -3.75898891
C        4.27042685      -4.19429970      -2.68259679
H        5.17425367      -4.53687169       5.93405128
H        3.43623672      -4.24560288       6.06991916
H        4.57580820      -2.88539772       5.72390247
H        2.12666441      -2.70712610       5.03422270
H        0.73444452      -1.29670775       3.60807531
H        3.00803526      -2.46833339       0.14940695
H        5.34392787      -4.74093379       2.09346858
H        6.60225997      -5.30082645       0.40921593
H        7.44026028      -3.80353013      -3.81603681
H        3.95687870      -2.60215568      -5.65943630
H        3.68466090      -4.61885797      -1.87343806
C        2.19833673      -3.47703003      -3.79100658
C        0.99601434      -3.38682001      -3.81782138
Br      -0.94803927      -3.24095804      -3.86117864
C       -0.00445707       0.01189536      -1.78238275
H       -0.66409135       0.67374010      -2.43557963
H        0.65740317      -0.63156657      -2.45157240
C       -0.90989263      -0.90692880      -0.91072765
C        0.90977584       0.90977584      -0.90977584
C       -0.00465871       1.77757030       0.00794375
H       -0.66225468       2.44313916      -0.64384735
H        0.64322798       2.43503045       0.67728295
C       -1.78241447       0.00034974      -0.00472694
H       -2.45427497      -0.65498947       0.64260836
H       -2.43311707       0.67328779      -0.65473579
C       -0.91132561       0.90220522       0.91563759
C       -0.01476271      -0.02253852       1.78660255
H       -0.67934791      -0.69751639       2.42135241
H        0.63392994       0.61504881       2.47327442
C        0.01484550      -1.77751727      -0.01636693
H        0.67870853      -2.42144646      -0.68295456
H       -0.62264859      -2.45592969       0.64226336
C        1.78714474       0.01002794       0.00389507
H        2.44202412       0.67113390       0.66197326
H        2.45385902      -0.65136977      -0.64189061
C        0.91606151      -0.90478549       0.90901405
