129
Properties=species:S:1:pos:R:3 pbc="F F F"
C        0.00000000       0.00000000       0.00000000
C        0.88206416       0.88206416      -0.88206416
C        0.77008371       2.26870419      -0.80519040
C        1.60307107       3.07371658      -1.58344392
C        2.55308338       2.49138919      -2.42704854
C        2.64876612       1.09782819      -2.51832554
C        1.80751949       0.29107447      -1.74135480
C        3.69981094       0.46037133      -3.35537255
N        4.07015510       0.77171190      -4.56024862
N        3.43177182       1.70675422      -5.29903646
C        3.91097445       2.13351095      -6.52711734
O        3.38624177       3.08607325      -7.10613449
C        5.08603340       1.46265048      -7.13872303
C        5.96511744       2.22345086      -7.90183425
N        7.08715111       1.72908427      -8.48911668
C        7.33195265       0.40892682      -8.31033222
C        6.49807838      -0.43456378      -7.59308065
C        5.34897766       0.09519321      -7.01611071
C        4.45044979      -0.70946731      -2.74548639
H        0.04863284       2.73018858      -0.13483193
H        1.52515550       4.15687768      -1.51624729
H        3.23113815       3.13568798      -2.98285991
H        1.87791686      -0.79253838      -1.79112890
H        2.59945696       2.17019279      -4.95240157
H        5.79773014       3.28589684      -8.06318607
H        8.24219684       0.04520111      -8.77829220
H        4.66921938      -0.55288283      -6.47232941
H        4.32356298      -0.76604725      -1.66264021
H        5.51899343      -0.60481389      -2.95891630
H        4.09116800      -1.63589544      -3.20495394
C        6.81469941      -1.83061896      -7.43693626
C        7.07986952      -2.99981517      -7.30616534
Br       7.50862715      -4.89030656      -7.09471981
C       -0.88206416      -0.88206416      -0.88206416
C       -0.61463463      -0.98369117      -2.24565251
C       -1.39746145      -1.81954358      -3.04322654
C       -2.43723432      -2.56007697      -2.47420982
C       -2.71730203      -2.43962637      -1.10799144
C       -1.93475278      -1.59525396      -0.30994201
C       -3.77232687      -3.27210317      -0.47112478
N       -4.96899822      -3.52811523      -0.90500218
N       -5.48253334      -2.94416562      -2.01086354
C       -6.70318803      -3.32084383      -2.54757088
O       -7.07427128      -2.87120367      -3.63297455
C       -7.55928501      -4.29871065      -1.82941124
C       -8.33956361      -5.17527926      -2.57555968
N       -9.14171474      -6.12987991      -2.03375741
C       -9.16919178      -6.20064719      -0.68137271
C       -8.45096734      -5.35059599       0.14496807
C       -7.65051210      -4.37327960      -0.43648988
C       -3.43135694      -3.91570146       0.86058953
H        0.20657827      -0.42788854      -2.69234309
H       -1.18293881      -1.90921161      -4.10613005
H       -2.99962006      -3.24871004      -3.10135595
H       -2.13114358      -1.50035095       0.75498715
H       -4.96258226      -2.23884624      -2.52062283
H       -8.33890124      -5.14518236      -3.66272945
H       -9.80689226      -6.98156665      -0.27723124
H       -7.10016114      -3.68090105       0.19239623
H       -2.35756488      -3.92017798       1.05758692
H       -3.78299321      -4.95234959       0.86224697
H       -3.94730511      -3.37015040       1.65722900
C       -8.52072640      -5.47792095       1.57763064
C       -8.57914961      -5.58455561       2.77748554
Br      -8.67361501      -5.75697483       4.71754943
C       -0.88206416       0.88206416       0.88206416
C       -0.91052540       0.67402545       2.25942745
C       -1.68706408       1.50499899       3.06816850
C       -2.42329153       2.54826712       2.49996247
C       -2.40975085       2.74155288       1.11361611
C       -1.63490943       1.90256327       0.30247607
C       -3.12892766       3.88854667       0.49808049
N       -4.32576949       4.32151860       0.75482753
N       -5.16891778       3.67663604       1.59200868
C       -6.38982434       4.21200554       1.96977286
O       -7.06770605       3.66784586       2.84289760
C       -6.87410307       5.46876261       1.34454122
C       -7.62942676       6.34745931       2.11351648
N       -8.10540621       7.53812146       1.66182439
C       -7.81842315       7.85599507       0.37679347
C       -7.09995233       7.03096292      -0.47432000
C       -6.63850837       5.81175874       0.01001448
C       -2.39017227       4.66967422      -0.57337762
H       -0.32320433      -0.12160300       2.71205202
H       -1.70155381       1.35150080       4.14522586
H       -2.97729501       3.21993569       3.15245535
H       -1.60354068       2.04738142      -0.77441472
H       -4.91124151       2.79331977       2.01749005
H       -7.87582640       6.12235649       3.14863015
H       -8.19875621       8.81886339       0.04807054
H       -6.09632511       5.13948980      -0.64714896
H       -1.31672069       4.47086837      -0.56743312
H       -2.53972357       5.74139330      -0.40802103
H       -2.80590729       4.40531797      -1.55099876
C       -6.82543919       7.42690588      -1.83132837
C       -6.59553444       7.75850811      -2.96782287
Br      -6.22379791       8.29468087      -4.80543837
C        0.88206416      -0.88206416       0.88206416
C        0.64899848      -2.25446486       0.94051497
C        1.47935333      -3.06422709       1.71665116
C        2.54679570      -2.50230601       2.42241939
C        2.76556389      -1.12036783       2.37898812
C        1.92727266      -0.30802379       1.60465231
C        3.93725293      -0.51341883       3.06488306
N        4.38799504      -0.75600829       4.25811229
N        3.74374920      -1.56496545       5.12884785
C        4.29505639      -1.93002367       6.34652268
O        3.74769383      -2.77989883       7.05085685
C        5.57219471      -1.31983691       6.79537529
C        6.45059369      -2.09114758       7.54866128
N        7.65827247      -1.65333982       7.99373977
C        7.99451161      -0.38013483       7.67656525
C        7.17198632       0.47295312       6.95756206
C        5.93544364       0.00332650       6.52816444
C        4.72403704       0.52909146       2.29152329
H       -0.16591552      -2.70277075       0.37679813
H        1.30613423      -4.13772259       1.75442366
H        3.21658927      -3.15699607       2.97610070
H        2.09149152       0.76515562       1.55017149
H        2.84793659      -1.97833788       4.89577685
H        6.21097511      -3.11703883       7.81879911
H        8.97037360      -0.06271234       8.03260421
H        5.26536107       0.66291688       5.98622176
H        4.50482871       0.50693730       1.22226453
H        5.79513614       0.34624807       2.42420777
H        4.48585907       1.51912090       2.69348833
C        7.58784366       1.81686139       6.65003444
C        7.93612418       2.94238457       6.39248006
Br       8.49926433       4.76226035       5.97603642
