150
Properties=species:S:1:pos:R:3 pbc="F F F"
C        6.06302143       3.88187480      -2.29480583
O        5.00365048       3.41823049      -1.46667225
C        3.83976258       3.05191519      -2.09464840
C        3.00928408       2.25873866      -1.29833263
C        1.79309025       1.79309025      -1.79309025
C        1.37414624       2.12016142      -3.08181536
C        2.17209190       2.92942272      -3.90151213
C        1.64402709       3.26796731      -5.25040327
H        0.61192829       2.98846915      -5.44483575
N        2.42208239       3.95937713      -6.09356834
N        1.73269095       4.35291026      -7.26489469
C        2.33117137       5.09191567      -8.26754561
O        1.82720299       5.16807674      -9.38774144
C        3.59550270       5.82086991      -8.00588429
C        4.53341285       5.91538592      -9.02810489
N        5.72704190       6.56108641      -8.91631505
C        5.97855003       7.13192638      -7.71333187
C        5.09278280       7.11358653      -6.64419722
Br       5.53920703       7.94949872      -5.01329894
C        3.87323087       6.46771167      -6.79980650
C        3.41086903       3.39311662      -3.38619857
O        4.19343557       4.20957995      -4.16700215
H        6.97334785       3.89107523      -1.68700035
H        5.88703538       4.91188895      -2.62018993
H        6.24820539       3.20723633      -3.13792036
H        3.33001227       2.00220827      -0.29301841
H        0.42320598       1.75046685      -3.45463821
H        0.87413111       3.87021390      -7.49958943
H        4.34618081       5.45356833      -9.99401295
H        6.94349693       7.62311131      -7.63616926
H        3.14447819       6.44619527      -5.99414618
H        3.69750471       4.25870176      -5.02242584
C       -1.90216603      -5.01917949      -5.31835653
O       -1.30415807      -3.88896256      -4.69543260
C       -2.01196063      -3.29142527      -3.68294027
C       -1.22702312      -2.46529095      -2.87404130
C       -1.79309025      -1.79309025      -1.79309025
C       -3.15160956      -1.91799836      -1.50651511
C       -3.97300422      -2.72234159      -2.30768094
C       -5.41941290      -2.77842078      -1.96456398
H       -5.76067247      -2.07362919      -1.21093154
N       -6.21390105      -3.61082623      -2.65030058
N       -7.58173748      -3.43515613      -2.33360229
C       -8.58483016      -4.17288197      -2.93292053
O       -9.71368319      -4.22396696      -2.44537103
C       -8.31935592      -4.91288055      -4.19002043
C       -8.95237927      -6.13472970      -4.38979468
N       -8.79720928      -6.90608341      -5.50115067
C       -7.96066259      -6.41551814      -6.44762755
C       -7.30670050      -5.19460609      -6.34925996
Br      -6.16944940      -4.60063963      -7.73191566
C       -7.50643526      -4.42091913      -5.21339465
C       -3.38207899      -3.40504922      -3.40305601
O       -4.17827444      -4.17692910      -4.21481414
H       -1.12618721      -5.51550409      -5.90973212
H       -2.68830041      -4.71460285      -6.01621099
H       -2.26041754      -5.74897582      -4.58396872
H       -0.16842150      -2.36311069      -3.09370676
H       -3.57984934      -1.38778531      -0.66067640
H       -7.81573253      -2.95448649      -1.47371542
H       -9.61821900      -6.54207804      -3.63346505
H       -7.83265367      -7.05398242      -7.31614140
H       -7.02809613      -3.45129732      -5.10542620
H       -5.06872133      -4.12460409      -3.78530689
C       -1.89954150       5.28754619       5.05261437
O       -1.25844199       4.15875599       4.47135525
C       -1.98993053       3.42432145       3.57207419
C       -1.20337544       2.59643320       2.76654673
C       -1.79309025       1.79309025       1.79309025
C       -3.17550126       1.78698797       1.61363380
C       -3.99703043       2.58973274       2.41626359
C       -5.46533175       2.50362103       2.19344488
H       -5.80345158       1.71313017       1.52865144
N       -6.27150834       3.32657231       2.87694720
N       -7.64008918       3.01861287       2.69179385
C       -8.65221164       3.72393482       3.31448620
O       -9.81590622       3.64540211       2.92171285
C       -8.35309472       4.58609173       4.48307045
C       -9.06972610       5.76736916       4.63980840
N       -8.89419842       6.63973937       5.67050557
C       -7.94789561       6.29775161       6.57816106
C       -7.20263663       5.12761859       6.52031134
Br      -5.91486587       4.74327257       7.84386625
C       -7.42414675       4.24738174       5.46922055
C       -3.38238699       3.40667168       3.40112556
O       -4.17531140       4.18002995       4.21467634
H       -1.12460197       5.89112242       5.53569904
H       -2.60026594       4.98274426       5.83610405
H       -2.37443153       5.92241784       4.29651271
H       -0.12603050       2.59606435       2.90314409
H       -3.62198586       1.15533142       0.85099376
H       -7.89890694       2.45012828       1.89489922
H       -9.82458734       6.05609356       3.91308119
H       -7.80703955       7.01544839       7.38028956
H       -6.87535646       3.31236312       5.39710007
H       -5.08890717       4.02227539       3.86744975
C        6.26235576      -3.07198135       2.90536495
O        5.30332439      -2.63505712       1.95017171
C        3.98625055      -2.66578364       2.33429198
C        3.15823680      -1.87907760       1.52904097
C        1.79309025      -1.79309025       1.79309025
C        1.22472606      -2.49924789       2.85214908
C        2.02121049      -3.31324750       3.66856876
C        1.34028015      -4.06613826       4.75597925
H        0.25369428      -4.04813357       4.74340535
N        2.08458820      -4.77772771       5.61271195
N        1.29820245      -5.57088737       6.48140608
C        1.85253391      -6.40140795       7.43669079
O        1.17491259      -6.84455629       8.36355229
C        3.28238276      -6.78507529       7.35479885
C        3.99838260      -6.94209995       8.53642111
N        5.31168456      -7.29689735       8.59586145
C        5.92315483      -7.49735409       7.40329936
C        5.28436986      -7.39116723       6.17502946
Br       6.22866788      -7.70140623       4.57193058
C        3.93789240      -7.05191238       6.15094426
C        3.41132775      -3.38798702       3.39086946
O        4.20249775      -4.20233426       4.16518567
H        7.24753274      -2.75600727       2.54788341
H        6.28304962      -4.16419172       2.97187291
H        6.11035825      -2.60047447       3.88252936
H        3.59548987      -1.32807686       0.70167222
H        0.15867482      -2.42326977       3.04636645
H        0.31918739      -5.33594482       6.58880223
H        3.52054839      -6.77499255       9.49822115
H        6.97477583      -7.75812113       7.46988053
H        3.39642900      -6.97646563       5.21192501
H        3.57728274      -4.55369791       4.84765166
C       -0.00445707       0.01189536      -1.78238275
H       -0.66409135       0.67374010      -2.43557963
H        0.65740317      -0.63156657      -2.45157240
C       -0.90989263      -0.90692880      -0.91072765
C        0.90977584       0.90977584      -0.90977584
C       -0.00465871       1.77757030       0.00794375
H       -0.66225468       2.44313916      -0.64384735
H        0.64322798       2.43503045       0.67728295
C       -1.78241447       0.00034974      -0.00472694
H       -2.45427497      -0.65498947       0.64260836
H       -2.43311707       0.67328779      -0.65473579
C       -0.91132561       0.90220522       0.91563759
C       -0.01476271      -0.02253852       1.78660255
H       -0.67934791      -0.69751639       2.42135241
H        0.63392994       0.61504881       2.47327442
C        0.01484550      -1.77751727      -0.01636693
H        0.67870853      -2.42144646      -0.68295456
H       -0.62264859      -2.45592969       0.64226336
C        1.78714474       0.01002794       0.00389507
H        2.44202412       0.67113390       0.66197326
H        2.45385902      -0.65136977      -0.64189061
C        0.91606151      -0.90478549       0.90901405
