137
Properties=species:S:1:pos:R:3 pbc="F F F"
C        0.00000000       0.00000000       0.00000000
C        0.88184401       0.88184401      -0.88184401
C        1.57992960       1.94800001      -0.31551013
C        2.38872255       2.75244988      -1.12244940
C        2.49367409       2.48404169      -2.49149094
C        3.34776156       3.31319400      -3.36463969
N        4.02934647       4.31391795      -2.90517678
N        4.77732266       4.97574375      -3.83174604
C        5.55934635       6.05731695      -3.58059791
S        5.69502581       6.79671716      -2.02708011
C        6.77822556       7.95509926      -2.67212353
C        6.97011288       7.72249758      -4.01859408
N        6.28227459       6.62816603      -4.52122447
C        7.84247416       8.52104286      -4.87339907
C        8.07574804       9.88275186      -4.62720948
C        8.91894273      10.62341535      -5.46244887
C        9.53249138      10.00611478      -6.55025920
C        9.30598157       8.65801118      -6.81568813
C        8.45979414       7.92114368      -5.98119125
C        1.79040167       1.41489070      -3.05609604
C        0.98221589       0.61148893      -2.24737830
H        1.50384272       2.16103992       0.74684600
H        2.93439000       3.58355868      -0.67919873
H        3.37821954       3.03504500      -4.43385614
H        4.80052945       4.66064429      -4.79808808
H        7.21060684       8.71562176      -2.03961542
H        7.59393725      10.39133826      -3.79536548
H        9.08474949      11.67750485      -5.25751912
H        9.77779000       8.17066032      -7.66437732
H        8.28687327       6.86821268      -6.19718024
H        1.86352035       1.19618628      -4.11804231
H        0.43797073      -0.21977331      -2.68822693
C       10.40321159      10.76830421      -7.40729687
C       11.13243977      11.40663786      -8.12506593
Br      12.31154007      12.43876938      -9.28563778
C       -0.88184401      -0.88184401      -0.88184401
C       -1.29253684      -0.41923187      -2.13167104
C       -2.09685243      -1.22778705      -2.93898235
C       -2.48464836      -2.49474838      -2.48980999
C       -3.32696405      -3.37214563      -3.32648557
N       -3.73838353      -3.01018702      -4.49987065
N       -4.49857409      -3.93234805      -5.15389032
C       -5.04476475      -3.76631345      -6.38618302
S       -4.88953929      -2.31778494      -7.31149884
C       -5.82965070      -3.01446979      -8.56132786
C       -6.21053915      -4.29272872      -8.20793668
N       -5.74348507      -4.71567679      -6.97250323
C       -7.01334595      -5.17263633      -9.05093381
C       -7.95908757      -4.66931294      -9.95730888
C       -8.71337806      -5.53663837     -10.75479052
C       -8.52694371      -6.91316728     -10.64875436
C       -7.59950147      -7.43156686      -9.74861256
C       -6.84960985      -6.56231625      -8.95020297
C       -2.07221165      -2.95438915      -1.23478760
C       -1.26775038      -2.14432721      -0.42900552
H       -0.99396112       0.56282672      -2.48690225
H       -2.41572696      -0.86638728      -3.91503317
H       -3.58835178      -4.35801817      -2.90075072
H       -4.68318206      -4.84043944      -4.73564032
H       -6.03507107      -2.46387321      -9.46689974
H       -8.13579347      -3.59980638     -10.04504114
H       -9.44316332      -5.12816546     -11.44844469
H       -7.45133678      -8.50400800      -9.65748286
H       -6.12810774      -6.97629145      -8.24786701
H       -2.36677949      -3.93641312      -0.87455633
H       -0.94719518      -2.50444482       0.54521566
C       -9.30108920      -7.80505934     -11.47266413
C       -9.94943605      -8.55201894     -12.16268856
Br     -10.99775806      -9.75978945     -13.27839971
C       -0.88184401       0.88184401       0.88184401
C       -1.39826476       0.37233943       2.07283556
C       -2.20251735       1.18069904       2.88040545
C       -2.48437248       2.49440072       2.49043353
C       -3.32422875       3.37200134       3.32936516
N       -3.83047888       2.96738753       4.45057480
N       -4.57421063       3.89528456       5.11531727
C       -5.20673900       3.69090230       6.29961992
S       -5.19776082       2.18263701       7.13842525
C       -6.17217197       2.86171222       8.37156416
C       -6.45257032       4.18049431       8.07813991
N       -5.88329534       4.64603514       6.90233461
C       -7.25332129       5.05770080       8.92589400
C       -8.28330451       4.56228064       9.74012424
C       -9.03357908       5.42658776      10.54464011
C       -8.75869801       6.79232108      10.53784626
C       -7.74643861       7.30355210       9.72969018
C       -7.00060221       6.43766291       8.92386396
C       -1.96606150       3.00114526       1.29418165
C       -1.16185139       2.19118383       0.48804790
H       -1.18224909      -0.64624348       2.38203104
H       -2.60397445       0.78256096       3.81061200
H       -3.49847986       4.39623571       2.95240511
H       -4.67710900       4.83669707       4.74545574
H       -6.46744650       2.27209452       9.22630299
H       -8.52894850       3.50287062       9.74882187
H       -9.82920541       5.02463473      11.16593333
H       -7.52883451       8.36790673       9.71608640
H       -6.21234496       6.84614448       8.29377676
H       -2.17776823       4.01973773       0.98024298
H       -0.75891334       2.58782807      -0.44031706
C       -9.52896419       7.68078328      11.36906520
C      -10.17406211       8.42487038      12.06521106
Br     -11.21713089       9.62799628      13.19082005
C        0.88184401      -0.88184401       0.88184401
C        1.04784451      -2.22989550       0.56569974
C        1.85708335      -3.03523053       1.37130796
C        2.49533345      -2.48552078       2.48835251
C        3.36230968      -3.31229712       3.35098846
N        3.56699455      -4.56866967       3.11277699
N        4.39870256      -5.19398078       3.99212912
C        4.74625592      -6.50601052       3.94499478
S        4.14297762      -7.61118384       2.76466162
C        5.05494269      -8.87231137       3.47819429
C        5.75488776      -8.39084439       4.56547240
N        5.58306715      -7.03689824       4.81169971
C        6.63967787      -9.20093176       5.39630647
C        6.42290457     -10.57396389       5.58884092
C        7.28907636     -11.32653411       6.38919648
C        8.37657736     -10.70911446       7.00317353
C        8.60273499      -9.34589427       6.83105162
C        7.73316479      -8.59552610       6.03343818
C        2.32479823      -1.13339423       2.80319595
C        1.51522632      -0.32966366       1.99619314
H        0.55621344      -2.66262305      -0.30079983
H        1.98721085      -4.08704823       1.12288833
H        3.83145474      -2.80316427       4.21250168
H        4.83480265      -4.67477673       4.74968243
H        5.03464589      -9.86849070       3.06270743
H        5.57071111     -11.07471723       5.13521266
H        7.10294012     -12.38785774       6.52897560
H        9.44641851      -8.85661660       7.30979254
H        7.91642919      -7.52999851       5.90583850
H        2.81502770      -0.69462041       3.66810083
H        1.38558692       0.72119499       2.24203242
C        9.26978954     -11.48522845       7.82379468
C       10.01785474     -12.13522391       8.51106490
Br      11.22741291     -13.18621160       9.62232271
