154
Properties=species:S:1:pos:R:3 pbc="F F F"
C        1.79165651       1.79165651      -1.79165651
C        2.61790279       2.74993443      -1.20617993
C        3.42095450       3.55975834      -2.01389729
C        3.39587559       3.40824518      -3.40532907
C        2.56232174       2.44441579      -3.98290884
C        1.76095034       1.63417160      -3.17597136
C        4.21161912       4.27019703      -4.26271962
C        5.49844089       4.08086417      -4.62078116
C        6.30295955       2.92727346      -4.18489090
O        5.85221684       1.88290112      -3.73392496
N        7.64201082       3.09080639      -4.36076865
C        8.22690037       3.87668233      -5.31219603
O        9.36461782       3.56675398      -5.66809839
N        7.45391791       4.90122178      -5.85313522
C        8.05759772       5.79548407      -6.81372184
C        9.39156767       6.21560988      -6.68266241
C        9.96943944       7.08893072      -7.61181758
C        9.22358667       7.54054726      -8.69561009
Br      10.00456862       8.71171860      -9.95529152
C        7.90405130       7.13227206      -8.85464518
C        7.32469095       6.27160734      -7.91538550
C        6.12250264       5.12431672      -5.48489176
O        5.47192929       6.12448183      -5.78969071
H        2.64318962       2.87426294      -0.12685819
H        4.05862259       4.30714503      -1.54757672
H        2.53360516       2.31408900      -5.06183674
H        1.12015625       0.88721613      -3.63629692
H        3.66688995       5.14919882      -4.60859882
H        8.19875452       2.28646065      -4.10190947
H       10.00095425       5.90120169      -5.83806800
H       10.99860307       7.41090478      -7.47420572
H        7.31465950       7.47249088      -9.70245996
H        6.29516676       5.96095108      -8.08215251
C       -1.79165651      -1.79165651      -1.79165651
C       -2.03370995      -3.11491792      -1.42538927
C       -2.83674852      -3.92267824      -2.23518337
C       -3.39621357      -3.40422477      -3.40901149
C       -3.14615003      -2.07536193      -3.76813441
C       -2.34500832      -1.26767398      -2.95841100
C       -4.21568036      -4.24945029      -4.27940512
C       -5.53965149      -4.48613345      -4.17430128
C       -6.39017863      -3.89991927      -3.12502600
O       -6.09942794      -2.92621013      -2.44340485
N       -7.59421744      -4.51692434      -2.98244407
C       -8.26734373      -5.18005512      -3.96837988
O       -9.49162502      -5.25312674      -3.85471843
N       -7.52022366      -5.63649390      -5.05155735
C       -8.18423707      -6.39995208      -6.08261448
C       -9.19533141      -7.32382671      -5.77068183
C       -9.83003922      -8.06728106      -6.77286747
C       -9.47226747      -7.88309328      -8.10438326
Br     -10.33405099      -8.87877109      -9.45875665
C       -8.48156650      -6.96772508      -8.44167695
C       -7.83820773      -6.23756796      -7.43590810
C       -6.14390178      -5.41497418      -5.17283516
O       -5.41944196      -5.96118300      -6.00547687
H       -1.60304326      -3.52533681      -0.51593068
H       -3.01582483      -4.95471829      -1.94280122
H       -3.57525935      -1.65843158      -4.67583997
H       -2.16073188      -0.23641573      -3.24652170
H       -3.63311283      -4.71895910      -5.07261567
H       -8.20105432      -4.09439529      -2.29167502
H       -9.48881905      -7.51137149      -4.74003339
H      -10.59650067      -8.78799814      -6.49921475
H       -8.19998688      -6.80982264      -9.47980082
H       -7.07970619      -5.51882047      -7.73974370
C       -1.79165651       1.79165651       1.79165651
C       -2.06455605       1.40608073       3.10338037
C       -2.87542213       2.21097509       3.90821292
C       -3.41058619       3.40001475       3.39884889
C       -3.13156052       3.77726691       2.08081893
C       -2.32020769       2.97393530       1.27695031
C       -4.28425699       4.23647863       4.22380016
C       -3.90919362       5.19490906       5.09598353
C       -2.50528093       5.55683176       5.35301121
O       -1.56151612       5.28397388       4.62355292
N       -2.32199281       6.28266642       6.48892663
C       -3.24590522       7.11161917       7.05825435
O       -2.81441862       8.03440866       7.75064291
N       -4.58253448       6.89044476       6.73529568
C       -5.59510983       7.70331470       7.36837911
C       -5.48226153       8.09492958       8.71264885
C       -6.47042891       8.87586227       9.32389656
C       -7.57813334       9.29004287       8.59156781
Br      -8.90791564      10.35146591       9.41219719
C       -7.70962984       8.92488144       7.25645725
C       -6.72767262       8.13106300       6.65294817
C       -4.99422698       5.89249009       5.84499405
O       -6.16300118       5.54003562       5.68306502
H       -1.65333126       0.48445220       3.50652728
H       -3.08573525       1.89903982       4.92856927
H       -3.53864853       4.69875702       1.67212534
H       -2.10837494       3.27929525       0.25599911
H       -5.33996621       4.00418705       4.08053434
H       -1.36553654       6.57046247       6.65112563
H       -4.64175599       7.77411994       9.32434800
H       -6.36443593       9.14833454      10.37094309
H       -8.56708166       9.25001274       6.67251594
H       -6.85686338       7.87923525       5.60217172
C        1.79165651      -1.79165651       1.79165651
C        2.11699212      -1.37521517       3.08180986
C        2.92785060      -2.18029809       3.88646145
C        3.41053972      -3.40038058       3.39852955
C        3.07913897      -3.80850584       2.10200156
C        2.26777695      -3.00493975       1.29837660
C        4.28381532      -4.23835659       4.22236387
C        3.90732060      -5.15771402       5.13505160
C        2.50180367      -5.46761322       5.44570701
O        1.54440109      -5.18762262       4.73701921
N        2.33219776      -6.15259616       6.60879193
C        3.24790375      -6.99238761       7.17548738
O        2.81049899      -7.87982418       7.90914702
N        4.57987340      -6.82299838       6.80540314
C        5.58663886      -7.64756138       7.43260338
C        5.50405080      -7.99452775       8.79126141
C        6.48671694      -8.78708268       9.39638812
C        7.55792157      -9.25769853       8.64412391
Br       8.87992167     -10.33481022       9.45684685
C        7.65862460      -8.93746586       7.29487807
C        6.68279525      -8.13199696       6.69689158
C        4.99359421      -5.86584852       5.87226839
O        6.16688163      -5.55517497       5.66404523
H        1.74669807      -0.42938452       3.46822816
H        3.17931819      -1.84430314       4.88972301
H        3.44513096      -4.75423702       1.71016292
H        2.01497190      -3.33433614       0.29436127
H        5.34108592      -4.04363159       4.03997009
H        1.37299533      -6.40530189       6.80882742
H        4.69319013      -7.62920409       9.41782972
H        6.40529755      -9.02424357      10.45417244
H        8.48715223      -9.30679542       6.69566269
H        6.78664802      -7.91629928       5.63532305
C       -0.00445707       0.01189536      -1.78238275
H       -0.66409135       0.67374010      -2.43557963
H        0.65740317      -0.63156657      -2.45157240
C       -0.90989263      -0.90692880      -0.91072765
C        0.90977584       0.90977584      -0.90977584
C       -0.00465871       1.77757030       0.00794375
H       -0.66225468       2.44313916      -0.64384735
H        0.64322798       2.43503045       0.67728295
C       -1.78241447       0.00034974      -0.00472694
H       -2.45427497      -0.65498947       0.64260836
H       -2.43311707       0.67328779      -0.65473579
C       -0.91132561       0.90220522       0.91563759
C       -0.01476271      -0.02253852       1.78660255
H       -0.67934791      -0.69751639       2.42135241
H        0.63392994       0.61504881       2.47327442
C        0.01484550      -1.77751727      -0.01636693
H        0.67870853      -2.42144646      -0.68295456
H       -0.62264859      -2.45592969       0.64226336
C        1.78714474       0.01002794       0.00389507
H        2.44202412       0.67113390       0.66197326
H        2.45385902      -0.65136977      -0.64189061
C        0.91606151      -0.90478549       0.90901405
