198
Properties=species:S:1:pos:R:3 pbc="F F F"
C        1.79266821       1.79266821      -1.79266821
C        2.72928819       2.64123549      -1.20759298
C        3.52627082       3.45452347      -2.01971590
C        3.39650255       3.42864268      -3.41469620
C        4.19941022       4.27593710      -4.31353122
H        4.07546277       4.08006513      -5.37569766
N        4.98167730       5.24837864      -3.81537784
N        5.57100495       6.00098170      -4.87844243
C        6.41493185       7.06665537      -4.62299125
O        6.76863972       7.46220533      -3.50963852
C        6.94258392       7.77310091      -5.85133428
C        7.91748361       8.75342771      -5.64557349
C        8.42350244       9.44545514      -6.73588243
C        7.92879835       9.14927430      -7.99720672
C        6.95515792       8.15472938      -8.13470559
N        6.45605630       7.44059492      -7.08450292
C        6.47136899       7.87999146      -9.53634951
O        6.70848670       8.71788360     -10.41099896
N        5.83569320       6.66626644      -9.73219038
N        5.50074530       6.23731875     -11.05567315
C        4.98741915       4.99735374     -11.05145937
H        4.83202548       4.39544301     -10.15983568
C        4.57197555       4.38318744     -12.32439795
C        5.08183597       4.79751348     -13.56288542
C        4.66709012       4.19090979     -14.75202042
C        3.73302982       3.15933379     -14.70574966
Br       3.15609755       2.34151138     -16.31145599
C        3.21836307       2.72637525     -13.48560642
C        3.64291912       3.33496995     -12.30059843
C        2.45332501       2.55938845      -3.98056287
C        1.65116191       1.74469928      -3.17710259
H        2.85101591       2.69005703      -0.13100519
H        4.25631708       4.12337386      -1.56725502
H        5.33107276       5.78293885      -5.83933200
H        8.27360492       8.96481964      -4.64233343
H        9.18777898      10.20316390      -6.60537154
H        8.29885924       9.67197273      -8.87350914
H        5.68607651       6.04249500      -8.94842913
H        5.80946105       5.60690208     -13.59137161
H        5.07770516       4.53944999     -15.69323506
H        2.48703982       1.92661281     -13.43765440
H        3.23559164       3.00541851     -11.34816502
H        2.33751842       2.52756151      -5.06163458
H        0.92446113       1.09015704      -3.64566115
C       -1.79266821      -1.79266821      -1.79266821
C       -1.58470661      -1.82400422      -3.16940583
C       -2.40255179      -2.62489167      -3.97306673
C       -3.42927667      -3.39704579      -3.41351897
C       -4.32818588      -4.24417945      -4.21651322
H       -5.01009332      -4.87235497      -3.64877727
N       -4.30962573      -4.17730935      -5.55849870
N       -5.33871360      -5.00354229      -6.10817318
C       -5.53094317      -5.09906091      -7.47457440
O       -4.85898537      -4.53807758      -8.34342062
C       -6.67052944      -5.99784847      -7.89864121
C       -6.80264940      -6.24596437      -9.26787105
C       -7.84161503      -7.04925628      -9.71396870
C       -8.72726064      -7.56719706      -8.78082167
C       -8.53707412      -7.28276900      -7.42474977
N       -7.51098796      -6.51637240      -6.95379378
C       -9.53283633      -7.88760475      -6.46726888
O      -10.59574464      -8.31752697      -6.92409766
N       -9.13810795      -7.95368406      -5.14235801
N       -9.93394214      -8.66818727      -4.19160779
C       -9.33927253      -8.70778079      -2.98917894
H       -8.38207915      -8.24796411      -2.75726091
C      -10.01177006      -9.39481168      -1.87297919
C      -10.98513283     -10.38368125      -2.07342079
C      -11.60198619     -11.01725134      -0.99078278
C      -11.24427432     -10.66058974       0.30675080
Br     -12.08359559     -11.50357665       1.77810732
C      -10.27420591      -9.68570181       0.52956297
C       -9.65828851      -9.06103790      -0.55916108
C       -3.61293825      -3.35605637      -2.02428170
C       -2.80215385      -2.55723907      -1.21357086
H       -0.80290139      -1.23401159      -3.63516515
H       -2.24758483      -2.64905221      -5.05030892
H       -5.97278337      -5.49374053      -5.48681971
H       -6.09572204      -5.81522622      -9.96980973
H       -7.96061530      -7.26625714     -10.76944198
H       -9.55384373      -8.19764072      -9.09285666
H       -8.24287936      -7.57147004      -4.86265124
H      -11.26193200     -10.65495848      -3.09084426
H      -12.35473453     -11.77421105      -1.18144462
H       -9.99059063      -9.39663790       1.53592150
H       -8.90807326      -8.29326575      -0.38783616
H       -4.40643434      -3.94742564      -1.57285453
H       -2.97633674      -2.54062922      -0.14331335
C       -1.79266821       1.79266821       1.79266821
C       -2.83639327       1.22354184       2.51818155
C       -3.64744737       2.03776012       3.31530271
C       -3.42572072       3.41904703       3.39507368
C       -4.25997710       4.32255014       4.20635130
H       -3.91464713       5.35175085       4.26482759
N       -5.39162917       3.87642316       4.77738146
N       -6.08090286       4.95437056       5.41515565
C       -7.28216888       4.75213022       6.07027937
O       -7.86347010       3.67266807       6.20434539
C       -7.89613299       5.99332584       6.67756028
C       -9.02648345       5.81071300       7.47928836
C       -9.64069374       6.91713256       8.04701371
C       -9.11746688       8.17420957       7.78360292
C       -7.98203129       8.28761576       6.97494584
N       -7.34204338       7.21643393       6.42267683
C       -7.46359364       9.68410020       6.74001613
O       -8.20904537      10.63444491       6.99387898
N       -6.15508246       9.77975015       6.29931740
N       -5.51703750      11.05809920       6.21860050
C       -4.22609497      10.93809173       5.87204556
H       -3.72625382       9.99517688       5.66587347
C       -3.40100579      12.15003060       5.72852455
C       -3.72449243      13.36076543       6.35697702
C       -2.91758061      14.49150357       6.20093614
C       -1.77496448      14.41417708       5.40897170
Br      -0.68417063      15.94336504       5.18152924
C       -1.43016344      13.21932829       4.78085301
C       -2.23993696      12.09168245       4.94686808
C       -2.36318487       3.96714024       2.66295123
C       -1.54889781       3.16187459       1.86219137
H       -3.03896659       0.15899265       2.47411890
H       -4.46781769       1.59874926       3.88037900
H       -5.70975553       5.89572109       5.34786699
H       -9.41346481       4.81206826       7.65522492
H      -10.51230321       6.80260446       8.68140676
H       -9.57290427       9.06322528       8.20821157
H       -5.62092326       8.93872725       6.11735013
H       -4.62123162      13.41443414       6.97206897
H       -3.19982798      15.41360318       6.69695905
H       -0.54480305      13.14843883       4.15806516
H       -1.97822561      11.16093252       4.45001704
H       -2.17757924       5.03781827       2.71131700
H       -0.74100656       3.61834320       1.30092955
C        1.79266821      -1.79266821       1.79266821
C        1.27699979      -2.96818341       2.33293346
C        2.08582711      -3.76594716       3.14873593
C        3.40861768      -3.40000918       3.43121456
C        4.29652039      -4.19580583       4.29655233
H        5.32831786      -3.85687767       4.34603004
N        3.81215119      -5.23317920       5.00010340
N        4.83066935      -5.77594169       5.84381803
C        4.57718291      -6.85087049       6.67652507
O        3.50934781      -7.46083590       6.77029986
C        5.75022505      -7.29681550       7.51997856
C        5.58586497      -8.47216458       8.25845526
C        6.62382686      -8.91760584       9.06340731
C        7.78869395      -8.16705346       9.11953195
C        7.88989703      -7.00153348       8.35316239
N        6.89575220      -6.55146527       7.53393666
C        9.18866820      -6.24220287       8.45683889
O        9.93903471      -6.49464744       9.40368711
N        9.45230182      -5.34782258       7.43402562
N       10.73221404      -4.71363133       7.34789183
C       10.83243592      -3.96562123       6.23817512
H       10.04258842      -3.84313770       5.50157806
C       12.07841148      -3.22444286       5.97670660
C       13.30691334      -3.59173063       6.54359091
C       14.47095496      -2.86692201       6.27214335
C       14.40932843      -1.76301109       5.42577375
Br      15.97747610      -0.76826478       5.06332403
C       13.20067541      -1.38417842       4.84549091
C       12.04228465      -2.11815634       5.11804650
C        3.90791653      -2.21718040       2.86817939
C        3.10661760      -1.41267250       2.05367367
H        0.25567101      -3.27730821       2.13909891
H        1.68608152      -4.68311831       3.57774613
H        5.74482359      -5.33774723       5.87077279
H        4.65578247      -9.02817274       8.19680278
H        6.52649564      -9.83161087       9.63820791
H        8.62108098      -8.48288390       9.74037624
H        8.77132408      -5.20822345       6.69745311
H       13.34665325      -4.45413109       7.20695040
H       15.40363245      -3.17524710       6.73151065
H       13.13978517      -0.52346915       4.18805271
H       11.09625739      -1.81878171       4.67413607
H        4.93191113      -1.91648588       3.07831749
H        3.52015292      -0.49893760       1.64118880
C       -0.00445707       0.01189536      -1.78238275
H       -0.66409135       0.67374010      -2.43557963
H        0.65740317      -0.63156657      -2.45157240
C       -0.90989263      -0.90692880      -0.91072765
C        0.90977584       0.90977584      -0.90977584
C       -0.00465871       1.77757030       0.00794375
H       -0.66225468       2.44313916      -0.64384735
H        0.64322798       2.43503045       0.67728295
C       -1.78241447       0.00034974      -0.00472694
H       -2.45427497      -0.65498947       0.64260836
H       -2.43311707       0.67328779      -0.65473579
C       -0.91132561       0.90220522       0.91563759
C       -0.01476271      -0.02253852       1.78660255
H       -0.67934791      -0.69751639       2.42135241
H        0.63392994       0.61504881       2.47327442
C        0.01484550      -1.77751727      -0.01636693
H        0.67870853      -2.42144646      -0.68295456
H       -0.62264859      -2.45592969       0.64226336
C        1.78714474       0.01002794       0.00389507
H        2.44202412       0.67113390       0.66197326
H        2.45385902      -0.65136977      -0.64189061
C        0.91606151      -0.90478549       0.90901405
