177
Properties=species:S:1:pos:R:3 pbc="F F F"
C        0.00000000       0.00000000       0.00000000
C        0.88276419       0.88276419      -0.88276419
C        1.81938417       1.73133146      -0.29768896
C        2.61636680       2.54461945      -1.10981188
C        2.48659853       2.51873865      -2.50479218
C        3.28950620       3.36603308      -3.40362720
H        3.16555875       3.17016111      -4.46579364
N        4.07177328       4.33847462      -2.90547381
N        4.66110093       5.09107767      -3.96853840
C        5.50502782       6.15675135      -3.71308723
O        5.85873569       6.55230130      -2.59973449
C        6.03267990       6.86319689      -4.94143025
C        7.00757959       7.84352368      -4.73566947
C        7.51359842       8.53555111      -5.82597840
C        7.01889432       8.23937028      -7.08730269
C        6.04525390       7.24482536      -7.22480156
N        5.54615228       6.53069089      -6.17459889
C        5.56146497       6.97008743      -8.62644548
O        5.79858268       7.80797958      -9.50109494
N        4.92578917       5.75636242      -8.82228635
N        4.59084127       5.32741473     -10.14576913
C        4.07751513       4.08744971     -10.14155535
H        3.92212145       3.48553899      -9.24993166
C        3.66207152       3.47328341     -11.41449393
C        4.17193195       3.88760945     -12.65298140
C        3.75718609       3.28100576     -13.84211639
C        2.82312579       2.24942976     -13.79584564
Br       2.24619353       1.43160735     -15.40155196
C        2.30845904       1.81647123     -12.57570240
C        2.73301509       2.42506593     -11.39069440
C        1.54342099       1.64948442      -3.07065885
C        0.74125789       0.83479525      -2.26719857
H        1.94111189       1.78015301       0.77889883
H        3.34641305       3.21346984      -0.65735100
H        4.42116873       4.87303482      -4.92942798
H        7.36370090       8.05491562      -3.73242941
H        8.27787496       9.29325988      -5.69546751
H        7.38895522       8.76206871      -7.96360512
H        4.77617249       5.13259097      -8.03852510
H        4.89955703       4.69699806     -12.68146758
H        4.16780113       3.62954596     -14.78333104
H        1.57713580       1.01670878     -12.52775038
H        2.32568762       2.09551449     -10.43826099
H        1.42761439       1.61765749      -4.15173055
H        0.01455710       0.18025301      -2.73575713
C       -0.88276419      -0.88276419      -0.88276419
C       -0.31696118      -1.59211949      -1.93932391
C       -1.13131762      -2.38927380      -2.75020670
C       -2.50944825      -2.48510572      -2.51557538
C       -3.41317282      -3.29708074      -3.34891292
H       -4.43822327      -3.36931426      -2.99397596
N       -2.97277483      -3.85232910      -4.49061778
N       -4.05119527      -4.49400993      -5.17551180
C       -3.85452264      -5.13509976      -6.38524400
O       -2.77967091      -5.25253968      -6.97856091
C       -5.09572210      -5.74867748      -6.99290746
C       -4.91650618      -6.53725884      -8.13300773
C       -6.02333861      -7.10992961      -8.74185972
C       -7.27765589      -6.86436357      -8.20354784
C       -7.38768989      -6.06820974      -7.05898119
N       -6.31567930      -5.51160366      -6.42415910
C       -8.78116570      -5.85247371      -6.52435847
O       -9.73637549      -6.10844233      -7.26283938
N       -8.86805106      -5.42578336      -5.21060353
N      -10.14067006      -5.36424759      -4.55910747
C      -10.01116023      -5.02935226      -3.26600769
H       -9.06537104      -4.81870331      -2.77351775
C      -11.21612230      -4.90621091      -2.42751566
C      -12.42373779      -5.54353914      -2.74524587
C      -13.54781412      -5.40688343      -1.92561070
C      -13.46689649      -4.62557738      -0.77592733
Br     -14.98724288      -4.42434813       0.33223817
C      -12.27494818      -3.98895419      -0.43673031
C      -11.15389345      -4.13558569      -1.25929628
C       -3.05409704      -1.76911778      -1.44034943
C       -2.24869606      -0.96844713      -0.62610851
H        0.74501046      -1.53536209      -2.15201444
H       -0.69496958      -2.94173391      -3.58053039
H       -4.98939504      -4.43986580      -4.79437070
H       -3.92009709      -6.69930755      -8.53164128
H       -5.91126640      -7.73444749      -9.62088846
H       -8.16693472      -7.29332755      -8.65436678
H       -8.02355861      -5.24070065      -4.68302930
H      -12.48028969      -6.15019647      -3.64753651
H      -14.46772534      -5.90930784      -2.20364495
H      -12.20136796      -3.37431578       0.45408878
H      -10.22554714      -3.63204230      -1.00187366
H       -4.12232448      -1.83007077      -1.24460719
H       -2.70258747      -0.41985233       0.19187256
C       -0.88276419       0.88276419       0.88276419
C       -1.86345312       0.30189178       1.68305969
C       -2.67529949       1.11543224       2.48006640
C       -2.51690298       2.50768229       2.48554409
C       -3.35554867       3.40992561       3.29369219
H       -3.05784949       4.45552150       3.28814250
N       -4.43698688       2.94030393       3.93843090
N       -5.14733874       4.01491050       4.55846776
C       -6.30611630       3.78948637       5.27926372
O       -6.82800060       2.69217248       5.49059841
C       -6.95058566       5.02897016       5.85775122
C       -8.03281637       4.83344545       6.72051092
C       -8.67285927       5.93653615       7.26573251
C       -8.22341266       7.20217661       6.91997802
C       -7.13309436       7.32854800       6.05323846
N       -6.46831760       6.26254503       5.52057943
C       -6.69383004       8.73443820       5.72972964
O       -7.47172471       9.66066110       5.97527138
N       -5.41306481       8.86875743       5.22261571
N       -4.84168773      10.16969215       5.05264526
C       -3.56374535      10.09255755       4.65021728
H       -3.02908427       9.16476344       4.46374438
C       -2.80542578      11.33279633       4.41162675
C       -3.15762248      12.55624755       4.99865278
C       -2.41410556      13.71402792       4.75217477
C       -1.30667305      13.65122280       3.91050534
Br      -0.30236617      15.21617076       3.56081591
C       -0.93395869      12.44461744       3.32205654
C       -1.68002174      11.29027130       3.57848238
C       -1.51673584       3.06811391       1.67871450
C       -0.70226184       2.26347954       0.87751033
H       -2.01634815      -0.77172361       1.69774153
H       -3.44676188       0.66692118       3.10355082
H       -4.82542613       4.96798167       4.43022374
H       -8.36277936       3.82771069       6.96055587
H       -9.50788594       5.81277264       7.94594377
H       -8.70114078       8.08874717       7.32474110
H       -4.84795565       8.04537100       5.05396191
H       -4.02670756      12.59822465       5.65309046
H       -2.71734031      14.64500179       5.21833602
H       -0.07575156      12.38456461       2.66127879
H       -1.39689906      10.34968320       3.11288084
H       -1.38086834       4.14727242       1.66886167
H        0.05608383       2.72902016       0.25763091
C        0.88276419      -0.88276419       0.88276419
C        0.34111982      -2.00800447       1.49928030
C        1.15076087      -2.80548191       2.31455534
C        2.50014302      -2.48912153       2.52086480
C        3.39108089      -3.28610778       3.38197781
H        4.43806730      -2.99353253       3.36991367
N        2.89436493      -4.26770633       4.15365045
N        3.92585946      -4.81919471       4.97566283
C        3.66387596      -5.84325468       5.86773576
O        2.57555848      -6.39828983       6.03692318
C        4.85385451      -6.30530225       6.67815028
C        4.67199409      -7.43788448       7.47689417
C        5.72540744      -7.89487141       8.25484909
C        6.92373832      -7.19739585       8.22443313
C        7.04084275      -6.07292973       7.40110834
N        6.03069936      -5.61398983       6.60675287
C        8.37539609      -5.37079634       7.41180545
O        9.15693886      -5.61555939       8.33515895
N        8.63068931      -4.53580797       6.33794067
N        9.93207507      -3.96609292       6.16585714
C       10.01377685      -3.27344646       5.01929689
H        9.19682530      -3.14722896       4.31353784
C       11.27790603      -2.60316060       4.66878223
C       12.51389036      -3.00154056       5.19709187
C       13.69506616      -2.34423343       4.84100865
C       13.64323633      -1.27724372       3.94792115
Br      15.23542796      -0.37332701       3.47059787
C       12.42695023      -0.86885682       3.40482563
C       11.25105871      -1.53552732       3.76218940
C        3.02471971      -1.35683264       1.88201191
C        2.22295054      -0.55291659       1.06738458
H       -0.70079301      -2.27772020       1.36543888
H        0.73108959      -3.68321596       2.80292834
H        4.85879930      -4.42310017       4.94173206
H        3.71632898      -7.95234906       7.48236788
H        5.61442885      -8.77700919       8.87516431
H        7.76920606      -7.52366424       8.82175874
H        7.92314294      -4.39755765       5.62658798
H       12.54609418      -3.83461205       5.89731643
H       14.63346227      -2.67481835       5.27239751
H       12.37383929      -0.03622984       2.71152584
H       10.29966047      -1.21257040       3.34723222
H        4.06967534      -1.09493098       2.03239611
H        2.65699720       0.32148112       0.59505116
