133
Properties=species:S:1:pos:R:3 pbc="F F F"
C        0.00000000       0.00000000       0.00000000
C        0.88176996       0.88176996      -0.88176996
C        0.94250729       0.64515205      -2.25488684
C        1.75161070       1.44947594      -3.06092446
C        2.49726854       2.48518858      -2.48705940
C        2.43293876       2.72035208      -1.10974689
C        1.62119236       1.91556465      -0.30594306
C        3.38116154       3.33727805      -3.31528398
N        3.43827669       3.17730016      -4.59718558
N        4.26885704       3.95554192      -5.38227334
C        4.41675212       3.62852258      -6.71045353
S        3.73154004       2.35286314      -7.54711808
S        5.49336133       4.77126403      -7.47778989
C        5.79026005       5.66016811      -6.05196492
C        6.68239841       6.80237428      -5.92471106
H        6.53047481       7.44577011      -5.06168167
C        7.84713403       7.09081423      -6.76064078
C        8.72200029       6.07784632      -7.17368766
C        9.85230641       6.38177384      -7.93704442
C       10.11725630       7.70447057      -8.28141953
Br      11.65014790       8.11702547      -9.30729263
C        9.26403627       8.72442594      -7.86717680
C        8.13430916       8.41794434      -7.10300769
C        4.91763295       5.10305510      -4.98877199
O        4.87135503       5.71123915      -3.92921877
H        0.36887038      -0.16050982      -2.70664548
H        1.79880050       1.25727867      -4.13108007
H        3.00680987       3.52225150      -0.65194311
H        1.57314351       2.10007784       0.76455964
H        3.97738987       4.07078911      -2.75356059
H        8.54518305       5.04108297      -6.89790054
H       10.51756110       5.58164343      -8.24973207
H        9.47018387       9.75939574      -8.12958510
H        7.47896612       9.22619762      -6.78493132
C       -0.88176996      -0.88176996      -0.88176996
C       -1.45719367      -0.34985684      -2.03549567
C       -2.26643924      -1.15536827      -2.84020359
C       -2.49679980      -2.48879435      -2.48392237
C       -1.91705554      -3.01920681      -1.32677538
C       -1.10627287      -2.21183590      -0.52459130
C       -3.36976998      -3.35744803      -3.30650556
N       -3.89238087      -2.91639101      -4.40399057
N       -4.72050643      -3.71056477      -5.17560111
C       -5.38224427      -3.13683750      -6.23664647
S       -5.35420615      -1.54107684      -6.73623827
S       -6.33853164      -4.34952606      -7.05435756
C       -5.91028291      -5.60771934      -5.98439083
C       -6.39794774      -6.97756009      -6.03397592
H       -5.81137970      -7.72329817      -5.50324873
C       -7.66725597      -7.42643090      -6.60490217
C       -8.85037397      -6.69853288      -6.42462743
C      -10.06015628      -7.16772110      -6.94324729
C      -10.09204391      -8.37473919      -7.63636330
Br     -11.72947288      -9.01368379      -8.33130933
C       -8.92648544      -9.11656765      -7.81258592
C       -7.71758341      -8.64545195      -7.29222583
C       -4.89603211      -5.06872406      -5.04470387
O       -4.34801673      -5.86627249      -4.29752374
H       -1.28561911       0.68655454      -2.31594147
H       -2.71668190      -0.73368763      -3.73678971
H       -2.08773273      -4.05376138      -1.03951038
H       -0.65701972      -2.62632726       0.37468527
H       -3.54259644      -4.36287950      -2.89626363
H       -8.85146018      -5.76426429      -5.86844208
H      -10.96667237      -6.58741793      -6.79484629
H       -8.94800099     -10.06236222      -8.34880150
H       -6.81626929      -9.23779851      -7.43602725
C       -0.88176996       0.88176996       0.88176996
C       -2.23366864       1.03415244       0.57472509
C       -3.03944101       1.84333941       1.37923067
C       -2.48639669       2.49733823       2.48578159
C       -1.13042723       2.34121236       2.79139814
C       -0.32699870       1.52954437       1.98615700
C       -3.31296684       3.37975897       3.34099776
N       -4.57854101       3.51911748       3.11510395
N       -5.36076142       4.34992736       3.89598352
C       -6.65792613       4.59152534       3.50627677
S       -7.45585919       4.02594354       2.14971853
S       -7.43003602       5.64675197       4.66562727
C       -6.04366220       5.81238470       5.64634617
C       -5.93398788       6.63229922       6.84319666
H       -5.11892908       6.39623403       7.52276349
C       -6.72055214       7.82577277       7.15226413
C       -7.02647594       8.77672891       6.17032943
C       -7.74345769       9.93086506       6.49680191
C       -8.14841606      10.14286853       7.81186182
Br      -9.11144764      11.70751838       8.25549997
C       -7.84052503       9.21304201       8.80207198
C       -7.12255510       8.05957520       8.47313091
C       -4.99921270       4.91164204       5.09860530
O       -3.98047707       4.77150341       5.75983248
H       -2.66886658       0.53210357      -0.28596411
H       -4.09262013       1.96237782       1.13216128
H       -0.68897400       2.84335162       3.64867887
H        0.72692163       1.41004745       2.22553589
H       -2.76277123       3.90192733       4.13704101
H       -6.70154266       8.64097876       5.14164513
H       -7.97297513      10.65552249       5.72043898
H       -8.15042348       9.37735859       9.83138265
H       -6.88759406       7.34404673       9.25845427
C        0.88176996      -0.88176996       0.88176996
C        1.88667014      -1.65499268       0.30088335
C        2.69097004      -2.46408232       1.10695873
C        2.48309317      -2.49606602       2.49035732
C        1.47511639      -1.71831990       3.06960143
C        0.67324071      -0.90824451       2.26121485
C        3.30585765      -3.36312992       3.36473600
N        4.27279048      -4.06695932       2.87301264
N        5.04091184      -4.89173174       3.67402873
C        5.93946820      -5.74296316       3.07329688
S        6.23256951      -5.95803527       1.44091647
S        6.79170706      -6.65285804       4.29785016
C        5.94494005      -5.95368566       5.60376736
C        6.11276178      -6.28664193       7.01008004
H        5.75022405      -5.55743076       7.73027179
C        6.58972077      -7.55956531       7.54930297
C        6.18676257      -8.78450542       7.00226629
C        6.62143851      -9.98984575       7.55984041
C        7.45405044      -9.97354459       8.67555137
Br       8.03597547     -11.60363473       9.43485580
C        7.85280877      -8.76383051       9.23899973
C        7.41607436      -7.55935360       8.67983323
C        5.06445865      -4.89548313       5.04951827
O        4.49083814      -4.17098836       5.84998647
H        2.05087706      -1.63794640      -0.77381742
H        3.47050049      -3.06892956       0.64772918
H        1.30405424      -1.73382548       4.14312477
H       -0.10996442      -0.30483914       2.71378698
H        3.00966166      -3.36842750       4.42365041
H        5.51999212      -8.82002059       6.14415385
H        6.29969967     -10.92964094       7.11959598
H        8.49882031      -8.74676181      10.11358260
H        7.73422320      -6.62274824       9.13312361
