134
Properties=species:S:1:pos:R:3 pbc="F F F"
C       -0.46886602       7.90566653       0.48907079
C        1.02718312       7.79764161       0.71784609
C        1.45751005       6.34332630       0.75020489
N        1.77397688       5.61263153      -0.27690351
N        1.77705891       6.15761822      -1.52049888
C        2.20486964       5.46761407      -2.63955399
O        2.46712331       6.07095377      -3.68278340
C        2.39712769       3.99220048      -2.60524406
C        1.57900810       3.16913958      -1.81874582
C        1.79213697       1.79213697      -1.79213697
C        2.79839855       1.21300738      -2.55974145
C        3.58990119       2.02163473      -3.37745003
Br       4.92803784       1.18356640      -4.43153836
C        3.38554511       3.40660763      -3.41682316
O        4.16508949       4.15993104      -4.26032675
C        1.42157361       5.64861200       2.09285151
H       -0.77527001       8.95578382       0.46127822
H       -1.02503596       7.41019668       1.29191985
H       -0.76151985       7.43670994      -0.45569957
H        1.28518069       8.26050159       1.67687981
H        1.57818268       8.34966311      -0.04777473
H        1.69384982       7.15961323      -1.64395149
H        0.77368903       3.59705117      -1.22815421
H        2.95903275       0.13838407      -2.53107335
H        3.76122250       5.05167583      -4.34556416
H        0.38505284       5.40260686       2.33906005
H        1.83148124       6.30294886       2.86599116
H        2.00912087       4.72652364       2.06165373
C        1.23596402      -7.82979819      -0.35389554
C       -0.23304778      -7.89423204       0.02030117
C       -0.78898547      -6.49967504       0.23802905
N       -1.27263298      -5.71377629      -0.67710265
N       -1.35104892      -6.14040574      -1.96372135
C       -1.95054288      -5.39762532      -2.96386950
O       -2.26023047      -5.92645289      -4.03417711
C       -2.27235203      -3.95838579      -2.76383440
C       -1.45786611      -3.13248194      -1.97654545
C       -1.79213697      -1.79213697      -1.79213697
C       -2.91921623      -1.24952231      -2.40240884
C       -3.71179169      -2.05559667      -3.22159759
Br      -5.22015248      -1.26367269      -4.05931744
C       -3.38676862      -3.40355473      -3.41865255
O       -4.17514504      -4.15127840      -4.25892384
C       -0.68173042      -5.93045003       1.63484635
H        1.63266233      -8.83679631      -0.51510161
H        1.82250406      -7.35630070       0.44055577
H        1.38798218      -7.24943141      -1.26944043
H       -0.34985284      -8.46637417       0.94742454
H       -0.80555258      -8.42663709      -0.74343084
H       -1.18949740      -7.11345044      -2.19446670
H       -0.56149319      -3.52933271      -1.50806852
H       -3.17364814      -0.20365589      -2.25118615
H       -3.70213747      -4.98631747      -4.47000754
H        0.34747498      -5.60490920       1.80883457
H       -0.95025089      -6.69059722       2.37240917
H       -1.35120337      -5.07319673       1.75040933
C       -6.40822013      -3.02780250       3.56731209
C       -5.75512591      -2.46320423       4.81505696
C       -4.41295802      -1.84123230       4.47890574
N       -4.21026929      -0.62247344       4.07571608
N       -5.25595493       0.23623641       3.96298467
C       -5.09717384       1.57183661       3.64302725
O       -6.01574609       2.37278074       3.83233365
C       -3.80898921       2.08404401       3.10153901
C       -3.00202314       1.29342836       2.27144200
C       -1.79213697       1.79213697       1.79213697
C       -1.37980173       3.08342789       2.10791776
C       -2.19799789       3.89128234       2.89970573
Br      -1.60983767       5.65647867       3.27682627
C       -3.41791772       3.40487255       3.38618563
O       -4.20667809       4.24497398       4.13369521
C       -3.20645147      -2.75175354       4.52263616
H       -7.37817757      -3.47118902       3.81224705
H       -5.78325856      -3.80525657       3.11523889
H       -6.56606440      -2.24933714       2.81416240
H       -5.59592506      -3.26822579       5.54110320
H       -6.41024723      -1.73602080       5.30139408
H       -6.16461606      -0.00646786       4.33926633
H       -3.31418561       0.29030945       1.99439936
H       -0.43352287       3.46338566       1.73158165
H       -5.10362921       3.85000392       4.20482935
H       -3.20033135      -3.37834277       3.62661108
H       -3.24805251      -3.38892984       5.40931628
H       -2.28481770      -2.16342944       4.55260251
C        7.28983609       2.37993980       2.03783343
C        6.78327102       2.12065909       3.44436672
C        5.32794566       1.69346662       3.41615242
N        4.88582495       0.48148326       3.25917024
N        5.76199197      -0.54933304       3.14385100
C        5.35991105      -1.87064059       3.08148606
O        6.17175358      -2.77993000       3.26917689
C        3.93823565      -2.22966149       2.82667509
C        3.12498234      -1.44197729       1.99993387
C        1.79213697      -1.79213697       1.79213697
C        1.25714231      -2.93536016       2.37864490
C        2.07235251      -3.74729098       3.16934246
Br       1.30787744      -5.31380566       3.92145951
C        3.41441918      -3.40978628       3.38477045
O        4.18876153      -4.25455765       4.14202810
C        4.29078296       2.79210494       3.47865607
H        8.34102885       2.68300638       2.06121313
H        6.71624383       3.17854288       1.55553992
H        7.20343331       1.48543477       1.41289112
H        6.86759059       3.03736584       4.03857773
H        7.39934242       1.37089690       3.94717499
H        6.74671373      -0.41252081       3.33817999
H        3.52725198      -0.55708491       1.51455754
H        0.21590505      -3.19959949       2.21298563
H        5.13230013      -4.01141959       4.01474277
H        4.22334488       3.27448808       2.49974286
H        4.57385204       3.53433283       4.22891974
H        3.31239358       2.37927361       3.74087080
C       -0.00445707       0.01189536      -1.78238275
H       -0.66409135       0.67374010      -2.43557963
H        0.65740317      -0.63156657      -2.45157240
C       -0.90989263      -0.90692880      -0.91072765
C        0.90977584       0.90977584      -0.90977584
C       -0.00465871       1.77757030       0.00794375
H       -0.66225468       2.44313916      -0.64384735
H        0.64322798       2.43503045       0.67728295
C       -1.78241447       0.00034974      -0.00472694
H       -2.45427497      -0.65498947       0.64260836
H       -2.43311707       0.67328779      -0.65473579
C       -0.91132561       0.90220522       0.91563759
C       -0.01476271      -0.02253852       1.78660255
H       -0.67934791      -0.69751639       2.42135241
H        0.63392994       0.61504881       2.47327442
C        0.01484550      -1.77751727      -0.01636693
H        0.67870853      -2.42144646      -0.68295456
H       -0.62264859      -2.45592969       0.64226336
C        1.78714474       0.01002794       0.00389507
H        2.44202412       0.67113390       0.66197326
H        2.45385902      -0.65136977      -0.64189061
C        0.91606151      -0.90478549       0.90901405
