150
Properties=species:S:1:pos:R:3 pbc="F F F"
C        1.79166372       1.79166372      -1.79166372
C        2.00041194       3.12612300      -1.44695172
C        2.80833338       3.93198045      -2.25326961
C        3.40633070       3.40186378      -3.40234570
C        3.18943914       2.06139451      -3.74047228
C        2.38182010       1.25536712      -2.93468906
C        4.26377022       4.23676018      -4.24530608
C        5.57388721       4.43669513      -4.04803508
S        6.54925319       3.80691619      -2.78984638
C        8.01214892       4.57413935      -3.40937867
S        9.49715679       4.21532417      -2.72354673
N        7.70259857       5.35699122      -4.51660452
C        8.63941687       6.19134172      -5.20672549
C        8.66468146       6.22554882      -6.61043615
C        9.56579643       7.04647563      -7.29531330
C       10.44221827       7.86328494      -6.58668638
C       10.41007077       7.85560485      -5.19569754
C        9.51983204       7.02877638      -4.50599426
C        6.37981455       5.29908430      -4.95348617
O        5.87716269       5.87869265      -5.90943755
H        1.54240439       3.54668665      -0.55547088
H        2.96783594       4.97133025      -1.97489980
H        3.64880033       1.63401423      -4.62884264
H        2.22242563       0.21510644      -3.20569776
H        3.75695052       4.70551829      -5.08733030
H        7.99803364       5.59616600      -7.19737140
H        9.57826628       7.04852851      -8.38273685
H       11.13480336       8.50536395      -7.12450270
H        9.49259528       7.08475909      -3.42104968
C       11.29186215       8.72310973      -4.45848709
C       12.03036243       9.44964507      -3.84107335
Br      13.22445493      10.62439127      -2.84276754
C       -1.79166372      -1.79166372      -1.79166372
C       -2.12889115      -1.36831588      -3.07627962
C       -2.93447548      -2.17606421      -3.88304375
C       -3.40085968      -3.40569425      -3.40398626
C       -3.05782468      -3.82102705      -2.11245421
C       -2.25248887      -3.01384637      -1.30554103
C       -4.23520900      -4.26278701      -4.24784048
C       -3.77064537      -5.15171114      -5.13626091
S       -2.13667481      -5.49056960      -5.51877135
C       -2.56873804      -6.74102400      -6.68590490
S       -1.37331915      -7.69575006      -7.36695848
N       -3.95209498      -6.81210418      -6.81199516
C       -4.63877588      -7.65532200      -7.74338620
C       -5.77497425      -8.37908448      -7.34660771
C       -6.46173431      -9.19515777      -8.25069327
C       -6.03561824      -9.28375054      -9.57282081
C       -4.92526957      -8.55267585      -9.98342773
C       -4.22824679      -7.74471454      -9.08164134
C       -4.68517849      -5.99068995      -5.95651659
O       -5.90384588      -5.89310608      -5.86834093
H       -1.76993607      -0.41620988      -3.45841597
H       -3.19014885      -1.83883295      -4.88508419
H       -3.41039375      -4.77475963      -1.72650382
H       -1.99041018      -3.34770306      -0.30511658
H       -5.30733775      -4.13841417      -4.10404718
H       -6.13345026      -8.33859161      -6.31952917
H       -7.33169630      -9.75775236      -7.92008298
H       -6.57828614      -9.91332384     -10.27306003
H       -3.39439816      -7.15345762      -9.45054828
C       -4.50033079      -8.61525097     -11.35787722
C       -4.14444455      -8.66765764     -12.50897866
Br      -3.56900662      -8.75239479     -14.37021233
C       -1.79166372       1.79166372       1.79166372
C       -2.00628001       3.12417291       1.44303373
C       -2.81419982       3.93002477       2.24935885
C       -3.40632897       3.40184989       3.40236133
C       -3.18357137       2.06333614       3.74439843
C       -2.37595149       1.25731515       2.93860963
C       -4.26374010       4.23669591       4.24540047
C       -5.57522838       4.43137059       4.05201845
S       -6.55276570       3.79379681       2.79945325
C       -8.01616786       4.55807783       3.42142125
S       -9.50229337       4.19169014       2.74204418
N       -7.70549992       5.34587317       4.52482122
C       -8.64281982       6.17936181       5.21530245
C       -8.66330982       6.21839150       6.61896512
C       -9.56489814       7.03856274       7.30412448
C      -10.44663760       7.84982726       6.59572472
C      -10.41931323       7.83739277       5.20466715
C       -9.52859720       7.01126513       4.51474035
C       -6.38100628       5.29410726       4.95727148
O       -5.87705551       5.87880555       5.90943183
H       -1.55285755       3.54320927       0.54849510
H       -2.97830727       4.96783188       1.96792683
H       -3.63833444       1.63746763       4.63585513
H       -2.21197460       0.21857104       3.21268418
H       -3.75563092       4.71016124       5.08400694
H       -7.99242182       5.59339406       7.20575515
H       -9.57358377       7.04437664       8.39157123
H      -11.13958558       8.49136540       7.13371902
H       -9.50533924       7.06354628       3.42951854
C      -11.30669920       8.69923352       4.46752627
C      -12.04988494       9.42102514       3.85017077
Br     -13.25155343      10.58810115       2.85195916
C        1.79166372      -1.79166372       1.79166372
C        1.95880249      -1.47565704       3.13902713
C        2.76450227      -2.28350760       3.94557357
C        3.40107093      -3.40597429       3.40349496
C        3.22799780      -3.71387163       2.04943651
C        2.42261791      -2.90654366       1.24271470
C        4.23690886      -4.26383706       4.24509056
C        3.78606909      -5.28140609       4.99114224
S        2.16788176      -5.81244496       5.16568905
C        2.61613686      -7.13195243       6.24757764
S        1.46846599      -8.26233971       6.70522199
N        3.98100355      -7.08403985       6.51115091
C        4.66088209      -7.95141713       7.42518486
C        5.89946099      -8.51809260       7.08311285
C        6.57915892      -9.35571982       7.97270661
C        6.04095157      -9.62301020       9.22822782
C        4.82587711      -9.04809308       9.58740296
C        4.13665485      -8.21971357       8.69823426
C        4.70161909      -6.11123125       5.81953468
O        5.90609218      -5.88947982       5.86972089
H        1.46698616      -0.60750003       3.57007573
H        2.88683866      -2.03077780       4.99644953
H        3.71402641      -4.58384480       1.61378600
H        2.29343230      -3.15671204       0.19308549
H        5.29879449      -4.02365070       4.22735391
H        6.34771632      -8.33588405       6.10797067
H        7.53094657      -9.79513151       7.68345356
H        6.57777823     -10.26828037       9.91861141
H        3.21395917      -7.75252371       9.03192118
C        4.28112326      -9.29502052      10.89731520
C        3.82489190      -9.50182225      11.99436670
Br       3.08720438      -9.83620316      13.76820619
C       -0.00445707       0.01189536      -1.78238275
H       -0.66409135       0.67374010      -2.43557963
H        0.65740317      -0.63156657      -2.45157240
C       -0.90989263      -0.90692880      -0.91072765
C        0.90977584       0.90977584      -0.90977584
C       -0.00465871       1.77757030       0.00794375
H       -0.66225468       2.44313916      -0.64384735
H        0.64322798       2.43503045       0.67728295
C       -1.78241447       0.00034974      -0.00472694
H       -2.45427497      -0.65498947       0.64260836
H       -2.43311707       0.67328779      -0.65473579
C       -0.91132561       0.90220522       0.91563759
C       -0.01476271      -0.02253852       1.78660255
H       -0.67934791      -0.69751639       2.42135241
H        0.63392994       0.61504881       2.47327442
C        0.01484550      -1.77751727      -0.01636693
H        0.67870853      -2.42144646      -0.68295456
H       -0.62264859      -2.45592969       0.64226336
C        1.78714474       0.01002794       0.00389507
H        2.44202412       0.67113390       0.66197326
H        2.45385902      -0.65136977      -0.64189061
C        0.91606151      -0.90478549       0.90901405
