134
Properties=species:S:1:pos:R:3 pbc="F F F"
C        0.41048844      10.15946063      -5.29158430
C        1.31518076       9.54226350      -4.26659160
C        1.88819080      10.31926065      -3.25286625
C        2.73941655       9.73776145      -2.31372921
C        3.02150002       8.37320517      -2.37697409
C        2.44214703       7.57848724      -3.36976222
N        2.75781208       6.21428175      -3.45615430
C        2.09448006       5.42339052      -2.67152113
C        2.36667831       3.97008816      -2.65378130
C        1.56120949       3.16610091      -1.84052189
C        1.79202156       1.79202156      -1.79202156
C        2.81730511       1.21227530      -2.53787301
C        3.62243010       2.01839777      -3.34621746
Br       5.00967210       1.18638407      -4.33870209
C        3.40117962       3.39785487      -3.41104708
O        4.20977294       4.16069952      -4.21458695
C        1.59914962       8.16919769      -4.31515206
H        0.35818827      11.24714616      -5.17678978
H       -0.60281796       9.75897731      -5.18987853
H        0.78222020       9.95004176      -6.29995922
H        1.68547399      11.38639842      -3.19550347
H        3.19513401      10.34889139      -1.53930095
H        3.70113167       7.92714309      -1.65843936
H        1.31083569       5.80249993      -1.98850692
H        0.75849710       3.60330052      -1.25084291
H        2.98980986       0.14057624      -2.49112877
H        3.90000423       5.09453160      -4.16186415
H        1.17131528       7.55179377      -5.10266579
C       -0.12207550      -9.80671578      -5.93274209
C       -0.99245773      -9.31885081      -4.81272732
C       -1.44469217     -10.19587869      -3.81974683
C       -2.26540247      -9.73446385      -2.79104089
C       -2.63734405      -8.39097168      -2.74336354
C       -2.17849875      -7.49720059      -3.71469715
N       -2.58542648      -6.15486706      -3.68795460
C       -1.92196605      -5.37224413      -2.89518153
C       -2.28420747      -3.94487005      -2.76147025
C       -1.47811513      -3.14137184      -1.94834532
C       -1.79202156      -1.79202156      -1.79202156
C       -2.90040014      -1.23701257      -2.43004070
C       -3.70568042      -2.04292596      -3.23843895
Br      -5.20724692      -1.24564980      -4.08186153
C       -3.40206146      -3.39724173      -3.41077837
O       -4.21322106      -4.16060632      -4.21123204
C       -1.36582007      -7.96794807      -4.74973123
H        0.00697332     -10.89342865      -5.89566888
H        0.86827258      -9.34559536      -5.86871510
H       -0.57402155      -9.55932861      -6.89887103
H       -1.17108820     -11.24826110      -3.84802658
H       -2.62766021     -10.42315631      -2.03250983
H       -3.29357878      -8.03871791      -1.95441743
H       -1.07120758      -5.73990740      -2.29072756
H       -0.61101802      -3.55964164      -1.44198086
H       -3.13714028      -0.18465726      -2.29971733
H       -3.84182322      -5.07269340      -4.24188337
H       -1.03261248      -7.27407099      -5.51909136
C      -10.75441268       1.39483853       3.71228217
C       -9.46945905       1.19472557       4.45985124
C       -9.42745098       0.41268881       5.62017791
C       -8.23024885       0.24523208       6.31542628
C       -7.06334741       0.85433613       5.85399574
C       -7.08255992       1.62163367       4.68620290
N       -5.91703538       2.26601701       4.24519575
C       -5.09008346       1.54302245       3.55628581
C       -3.81405846       2.10852668       3.06796263
C       -3.00596102       1.29625753       2.26561375
C       -1.79202156       1.79202156       1.79202156
C       -1.37238192       3.08220205       2.11286945
C       -2.17990439       3.88964333       2.91749762
Br      -1.56513775       5.63632128       3.33329922
C       -3.40332939       3.41023722       3.39651496
O       -4.17217088       4.22875234       4.18413620
C       -8.28781840       1.79540798       4.00027298
H      -11.59990511       0.94182908       4.24039002
H      -10.68906707       0.93601856       2.72095225
H      -10.96620500       2.46346557       3.60255062
H      -10.33063644      -0.06128761       5.99802706
H       -8.20693670      -0.34873695       7.22512660
H       -6.13772321       0.74053069       6.40846023
H       -5.30308568       0.48455320       3.31420365
H       -3.31808113       0.28660071       2.00795869
H       -0.42349832       3.45790535       1.74011121
H       -5.00190732       3.74675706       4.40773560
H       -8.30390639       2.41568804       3.10618041
C       10.91574814      -2.46778038       2.47800486
C        9.78982667      -1.98861475       3.34559443
C       10.01763032      -1.06768056       4.37500682
C        8.96599928      -0.64002963       5.18487830
C        7.67630846      -1.12576596       4.96960486
C        7.42692464      -2.02985869       3.93361316
N        6.13708212      -2.54780970       3.74335632
C        5.31708018      -1.80528925       3.06702228
C        3.92194843      -2.23572615       2.83287319
C        3.11522157      -1.42280491       2.02980581
C        1.79202156      -1.79202156       1.79202156
C        1.26312703      -2.95563461       2.34869177
C        2.07023689      -3.76344554       3.15336290
Br       1.30572840      -5.33431867       3.89471118
C        3.40145506      -3.41097304       3.39765347
O        4.16672314      -4.22615870       4.19217758
C        8.48701761      -2.46369962       3.13278213
H       11.88000937      -2.07973511       2.82237973
H       10.76513495      -2.13418349       1.44671944
H       10.97158272      -3.56106817       2.49957029
H       11.01920154      -0.68660629       4.56156805
H        9.15160259       0.06179220       5.99351596
H        6.86371491      -0.80833996       5.61465925
H        5.62529183      -0.82878517       2.64776553
H        3.51218974      -0.51065292       1.58979787
H        0.22996592      -3.23297223       2.15857673
H        5.07471664      -3.84610256       4.23558079
H        8.29326138      -3.18829338       2.34422008
C       -0.00445707       0.01189536      -1.78238275
H       -0.66409135       0.67374010      -2.43557963
H        0.65740317      -0.63156657      -2.45157240
C       -0.90989263      -0.90692880      -0.91072765
C        0.90977584       0.90977584      -0.90977584
C       -0.00465871       1.77757030       0.00794375
H       -0.66225468       2.44313916      -0.64384735
H        0.64322798       2.43503045       0.67728295
C       -1.78241447       0.00034974      -0.00472694
H       -2.45427497      -0.65498947       0.64260836
H       -2.43311707       0.67328779      -0.65473579
C       -0.91132561       0.90220522       0.91563759
C       -0.01476271      -0.02253852       1.78660255
H       -0.67934791      -0.69751639       2.42135241
H        0.63392994       0.61504881       2.47327442
C        0.01484550      -1.77751727      -0.01636693
H        0.67870853      -2.42144646      -0.68295456
H       -0.62264859      -2.45592969       0.64226336
C        1.78714474       0.01002794       0.00389507
H        2.44202412       0.67113390       0.66197326
H        2.45385902      -0.65136977      -0.64189061
C        0.91606151      -0.90478549       0.90901405
