154
Properties=species:S:1:pos:R:3 pbc="F F F"
C        5.43971618       4.33015039      -4.20402530
O        4.01664948       4.28658186      -4.27944094
C        3.39212943       3.38960309      -3.44808128
C        2.10940630       3.80963003      -3.06308748
C        1.30859909       3.01757529      -2.24008055
C        1.79330066       1.79330066      -1.79330066
C        3.06076934       1.35448083      -2.16993138
C        3.87168962       2.13930642      -3.01123940
C        5.12323128       1.52923417      -3.48498430
H        5.15085516       1.34413991      -4.55645512
N        6.11032856       1.28438914      -2.60915702
N        7.25043527       0.78593542      -3.31514879
C        8.47347875       0.55603604      -2.71595935
O        9.51205254       0.66439574      -3.37296026
C        8.56283451       0.09786815      -1.29958265
C        9.76731620       0.33777181      -0.61921125
C        9.95548188      -0.16173222       0.66874754
Br      11.59045514       0.15183013       1.56937140
C        8.95779155      -0.90787974       1.29522432
C        7.76521518      -1.16338159       0.62039563
C        7.57368094      -0.66815661      -0.66922867
O        6.39178131      -1.00035738      -1.27368167
H        5.75278276       5.31431342      -4.56759788
H        5.88413428       3.59384892      -4.87895682
H        5.81206784       4.23405023      -3.18003104
H        1.73596480       4.76780091      -3.41565546
H        0.31699363       3.36184326      -1.96228535
H        3.42949127       0.38554579      -1.83989458
H        7.32159884       1.06868263      -4.28746027
H       10.55462553       0.90045898      -1.11474220
H        9.10029933      -1.30094184       2.29714006
H        6.98030091      -1.75021136       1.08797874
H        6.27998746      -0.32200669      -2.00233316
C       -5.43523733      -4.17333840      -4.36531614
O       -4.02246861      -4.31931086      -4.24089280
C       -3.38477124      -3.39766651      -3.44737605
C       -2.23378256      -3.91525355      -2.83308769
C       -1.43700533      -3.11985810      -2.00939151
C       -1.79330066      -1.79330066      -1.79330066
C       -2.92766618      -1.25797276      -2.39954262
C       -3.73104769      -2.04762882      -3.24355894
C       -4.81309507      -1.36008077      -3.96427390
H       -4.67971655      -1.32844086      -5.04329279
N       -5.85660725      -0.87078115      -3.27648632
N       -6.81620708      -0.34002691      -4.19528549
C       -8.05891035       0.12446315      -3.81102694
O       -9.01190598       0.05380250      -4.59130506
C       -8.25808784       0.78839435      -2.49059182
C       -9.56003685       0.80096679      -1.96522920
C       -9.83424064       1.49943397      -0.79019545
Br     -11.59691956       1.52508030      -0.10107461
C       -8.82617737       2.19698113      -0.12549126
C       -7.53437441       2.20200507      -0.64906862
C       -7.25604214       1.50707900      -1.82578985
O       -5.97253068       1.59882121      -2.29139614
H       -5.83814970      -5.15249096      -4.64405340
H       -5.68164749      -3.49161509      -5.18367744
H       -5.91506324      -3.88570580      -3.42538006
H       -1.96036717      -4.95315213      -3.00590187
H       -0.54756193      -3.54202798      -1.55153234
H       -3.19208844      -0.21332507      -2.24951812
H       -6.80500923      -0.74803773      -5.12469479
H      -10.35164403       0.27598904      -2.49417173
H       -9.03504183       2.74425295       0.78857145
H       -6.73816462       2.74697965      -0.15092585
H       -5.86886730       0.81446363      -2.90591027
C       -4.21844090       5.44114708       4.31430390
O       -4.27594024       4.01678579       4.28994625
C       -3.44810433       3.39138008       3.39032939
C       -3.04115417       2.11924983       3.82171980
C       -2.21803884       1.31884049       3.02937561
C       -1.79330066       1.79330066       1.79330066
C       -2.19193192       3.05004229       1.34320735
C       -3.03356908       3.86023486       2.12843150
C       -3.53128499       5.09758668       1.50857807
H       -4.60530663       5.10908234       1.33706122
N       -2.67154482       6.09256025       1.23976965
N       -3.39859383       7.21696930       0.73595636
C       -2.81831509       8.44450085       0.48265820
O       -3.48729270       9.47589359       0.58622225
C       -1.40920077       8.54603743       0.00504711
C       -0.74149597       9.76214483       0.22065846
C        0.53741052       9.96029400      -0.29788138
Br       1.42068965      11.61059780      -0.01699428
C        1.16717050       8.96111285      -1.03925486
C        0.50465327       7.75677742      -1.27068618
C       -0.77592954       7.55518340      -0.75635994
O       -1.36920357       6.36142921      -1.06552718
H       -4.57341033       5.76227311       5.29901063
H       -4.90845562       5.86729527       3.58118913
H       -3.20067815       5.82530448       4.20016648
H       -3.37654750       1.75378559       4.78908808
H       -1.92301644       0.33542380       3.38268200
H       -1.87914266       3.41035954       0.36542944
H       -4.36804580       7.27933675       1.03035919
H       -1.23995215      10.55027691       0.77959766
H        2.16203700       9.11132924      -1.44707482
H        0.97482599       6.97036887      -1.85343206
H       -2.08759599       6.24912246      -0.37640451
C        4.14689933      -5.42967356       4.39731898
O        4.29344580      -4.01702564       4.27220084
C        3.44778436      -3.39531791       3.38671153
C        3.15329176      -2.07343732       3.75539472
C        2.33082616      -1.27096352       2.96446525
C        1.79330066      -1.79330066       1.79330066
C        2.07921725      -3.10048671       1.40547759
C        2.91901300      -3.91441949       2.18880295
C        3.29323477      -5.21990293       1.62431205
H        4.35011751      -5.31559026       1.38574242
N        2.35537485      -6.16902126       1.47947861
N        2.97305690      -7.37029500       1.00816758
C        2.29964229      -8.56903274       0.87679911
O        2.90689324      -9.63494702       1.00756828
C        0.85762018      -8.60447082       0.49819431
C        0.12988904      -9.75592370       0.83848652
C       -1.19145778      -9.89905034       0.41740955
Br      -2.15709360     -11.46392034       0.86608714
C       -1.80524246      -8.90861382      -0.34868387
C       -1.08450747      -7.76953767      -0.70359224
C        0.23844080      -7.62336475      -0.28705255
O        0.88425542      -6.49506281      -0.71421263
H        4.54700186      -5.71073216       5.37696004
H        4.75665369      -5.94785889       3.65242743
H        3.10127012      -5.74998866       4.37489034
H        3.57656696      -1.67068220       4.67217201
H        2.12400567      -0.24915704       3.26795954
H        1.67806554      -3.50032458       0.47654151
H        3.95437224      -7.47974185       1.24362765
H        0.61397350     -10.53892541       1.41692781
H       -2.83317621      -9.01632905      -0.68093542
H       -1.54216684      -6.99170227      -1.30742462
H        1.65369968      -6.38826111      -0.08164686
C       -0.00445707       0.01189536      -1.78238275
H       -0.66409135       0.67374010      -2.43557963
H        0.65740317      -0.63156657      -2.45157240
C       -0.90989263      -0.90692880      -0.91072765
C        0.90977584       0.90977584      -0.90977584
C       -0.00465871       1.77757030       0.00794375
H       -0.66225468       2.44313916      -0.64384735
H        0.64322798       2.43503045       0.67728295
C       -1.78241447       0.00034974      -0.00472694
H       -2.45427497      -0.65498947       0.64260836
H       -2.43311707       0.67328779      -0.65473579
C       -0.91132561       0.90220522       0.91563759
C       -0.01476271      -0.02253852       1.78660255
H       -0.67934791      -0.69751639       2.42135241
H        0.63392994       0.61504881       2.47327442
C        0.01484550      -1.77751727      -0.01636693
H        0.67870853      -2.42144646      -0.68295456
H       -0.62264859      -2.45592969       0.64226336
C        1.78714474       0.01002794       0.00389507
H        2.44202412       0.67113390       0.66197326
H        2.45385902      -0.65136977      -0.64189061
C        0.91606151      -0.90478549       0.90901405
