182
Properties=species:S:1:pos:R:3 pbc="F F F"
C        3.26261140       2.61238208      -6.23587998
O        2.18388054       2.40680778      -5.32965712
C        2.46090669       2.55206094      -3.99339804
C        1.64703101       1.75718411      -3.17443348
C        1.79129502       1.79129502      -1.79129502
C        2.73591768       2.62578467      -1.20738369
C        3.54005041       3.43465668      -2.01600653
C        3.41061510       3.41350119      -3.41426808
O        4.12607730       4.22561879      -4.25367401
C        5.22544622       4.93804462      -3.70791599
C        5.89859036       5.84167293      -4.74661634
O        5.75324751       5.73282739      -5.96554762
N        6.71267286       6.82803760      -4.21801135
N        6.91264054       6.92834164      -2.87735881
C        7.62577143       7.92939428      -2.47349211
C        7.90747333       8.11152758      -1.03453978
C        8.73789054       9.15917211      -0.63363247
C        9.02488289       9.30351098       0.71775240
O        9.84945254      10.31899242       1.11055184
C        8.49596445       8.43105848       1.66768910
O        8.84255973       8.64424019       2.97573959
C        7.65764119       7.39453475       1.26515576
C        7.36046202       7.23031947      -0.08781959
H        3.36938506       3.67419595      -6.47582070
H        3.01252948       2.09466882      -7.16710512
H        4.20076408       2.18368972      -5.86634150
H        0.90687372       1.10777607      -3.63479988
H        2.84956101       2.66549331      -0.12701469
H        4.24726278       4.08514072      -1.51193538
H        5.98371051       4.22972901      -3.35042346
H        4.87216646       5.57859165      -2.89346359
H        7.15867590       7.46555781      -4.86907452
H        8.04654464       8.67359258      -3.17365296
H        9.16899543       9.85231949      -1.34953937
H        9.92107562      10.22666846       2.08280329
H        8.40569940       7.95019959       3.50600200
H        6.71041330       6.41956959      -0.40855352
C        7.09527569       6.48175561       2.22649820
C        6.62429457       5.71730308       3.03162249
Br       5.86275795       4.48124800       4.33344037
C       -5.69761792      -4.49651133      -1.91674422
O       -5.08710634      -3.25583106      -1.57740804
C       -3.86897532      -2.98758946      -2.14980089
C       -3.05735179      -2.16701615      -1.35428066
C       -1.79129502      -1.79129502      -1.79129502
C       -1.32458862      -2.21552125      -3.02897617
C       -2.13445211      -3.02005051      -3.83621101
C       -3.41492940      -3.41118629      -3.41226867
O       -4.27631854      -4.14635401      -4.18269756
C       -3.76036599      -4.75444898      -5.35659187
C       -4.84430964      -5.49970790      -6.14286209
O       -5.93644918      -5.83468339      -5.68048995
N       -4.51521967      -5.78769143      -7.45581072
N       -3.29676912      -5.46024037      -7.96133151
C       -3.11078162      -5.69863000      -9.21924621
C       -1.81252594      -5.38826960      -9.85274517
C       -1.61584662      -5.72103568     -11.19381281
C       -0.38125742      -5.45654369     -11.77284035
O       -0.18180964      -5.79521821     -13.08086528
C        0.64881229      -4.86458829     -11.04355782
O        1.83508248      -4.65149100     -11.69465181
C        0.44465510      -4.52245923      -9.70921605
C       -0.78683908      -4.78347589      -9.10828610
H       -6.26669422      -4.40622101      -2.84648648
H       -6.41165241      -4.73905089      -1.12360012
H       -4.97157049      -5.31574072      -1.96348410
H       -3.42718982      -1.83449306      -0.38776678
H       -0.34011553      -1.91955643      -3.38239705
H       -1.73422368      -3.30704411      -4.80307109
H       -2.99088610      -5.48825141      -5.08472548
H       -3.34991389      -3.98083579      -6.01347201
H       -5.21399695      -6.25819344      -8.02111784
H       -3.89838051      -6.13676071      -9.85864897
H       -2.39660446      -6.18717923     -11.78707059
H        0.74224885      -5.53419989     -13.27298975
H        2.44807665      -4.24704414     -11.05092950
H       -0.95034959      -4.52306993      -8.06511688
C        1.49085992      -3.90673186      -8.93466116
C        2.36705645      -3.39106018      -8.28597144
Br       3.78379215      -2.55726270      -7.23709502
C       -2.79433367       3.05388295       6.26265684
O       -1.81999945       2.85704636       5.24329963
C       -2.28111902       2.77172170       3.95352494
C       -1.47062823       1.97575781       3.13226256
C       -1.79129502       1.79129502       1.79129502
C       -2.91246583       2.40704717       1.24957305
C       -3.71671775       3.21647991       2.05751597
C       -3.41057202       3.41397534       3.41383701
O       -4.12438935       4.24220416       4.23877660
C       -5.37500460       4.72418114       3.77222109
C       -6.03541273       5.67633889       4.77512801
O       -5.72356767       5.76386994       5.96418491
N       -7.04343516       6.46557638       4.24971028
N       -7.42298492       6.34520322       2.95015285
C       -8.31834218       7.17958412       2.53073153
C       -8.80230772       7.11503473       1.13619825
C       -9.81913509       7.98080429       0.73075575
C      -10.29180860       7.89114271      -0.57230985
O      -11.29723035       8.72725250      -0.96658972
C       -9.76628064       6.96424468      -1.47119150
O      -10.30194003       6.94090494      -2.73178464
C       -8.74309525       6.11062015      -1.06669522
C       -8.25735250       6.18228594       0.23896263
H       -3.02228443       4.11723496       6.37988232
H       -2.35685897       2.71175419       7.20569026
H       -3.69971169       2.46163715       6.08944646
H       -0.59242234       1.49806933       3.55895799
H       -3.16576657       2.27566516       0.20063727
H       -4.56824737       3.69305986       1.58303164
H       -6.06192257       3.88188269       3.62005773
H       -5.22333665       5.27970246       2.84118258
H       -7.49128171       7.12916636       4.87286017
H       -8.75065292       7.95814373       3.18499353
H      -10.25222982       8.71023240       1.40839207
H      -11.47660601       8.48719134      -1.89885657
H       -9.83969325       6.23813891      -3.22793518
H       -7.46186260       5.51473152       0.56194228
C       -8.18035136       5.14670655      -1.97652482
C       -7.70905335       4.33942892      -2.73850710
Br      -6.94700434       3.03412925      -3.97056801
C        6.26008554      -3.08483328       2.76595464
O        5.31098397      -2.04233970       2.56702177
C        3.98514943      -2.39106225       2.63015398
C        3.16527391      -1.57840494       1.83496975
C        1.79129502      -1.79129502       1.79129502
C        1.21654511      -2.80459979       2.54794115
C        2.02492635      -3.60875643       3.35703083
C        3.41411867      -3.41058500       3.41368069
O        4.24851692      -4.12496132       4.23189186
C        3.72566802      -5.28453382       4.86120500
C        4.75225272      -5.95168543       5.78294148
O        5.96601156      -5.74188281       5.74372815
N        4.21861646      -6.83984822       6.70025713
N        2.88664646      -7.10962064       6.72207390
C        2.47156446      -7.89176968       7.66532369
C        1.04173847      -8.25203364       7.75976859
C        0.63333747      -9.15341414       8.74394351
C       -0.70703140      -9.51276669       8.80490617
O       -1.10607994     -10.40627629       9.75769677
C       -1.63921832      -8.98675952       7.91179262
O       -2.93666148      -9.40697813       8.04074368
C       -1.23014004      -8.07798196       6.93917825
C        0.11226104      -7.70737483       6.85896521
H        6.45326472      -3.23394159       3.83219541
H        7.20137937      -2.76364373       2.30928031
H        5.96025422      -4.01670566       2.27383542
H        3.61823825      -0.78452132       1.24669009
H        0.14274449      -2.97251222       2.52681229
H        1.52663012      -4.37195691       3.94575185
H        3.44225325      -6.02208972       4.09952002
H        2.86404879      -5.00446513       5.47570777
H        4.85985815      -7.28566989       7.34778020
H        3.15530591      -8.31548937       8.42299490
H        1.33579564      -9.58406525       9.45099340
H       -2.06776095     -10.52026923       9.61243252
H       -3.45418827      -8.96151505       7.34257021
H        0.43838955      -7.00191807       6.09822878
C       -2.17345314      -7.51710459       6.00688165
C       -2.96347787      -7.04736979       5.22608324
Br      -4.24088103      -6.28784835       3.96359825
C       -0.00445707       0.01189536      -1.78238275
H       -0.66409135       0.67374010      -2.43557963
H        0.65740317      -0.63156657      -2.45157240
C       -0.90989263      -0.90692880      -0.91072765
C        0.90977584       0.90977584      -0.90977584
C       -0.00465871       1.77757030       0.00794375
H       -0.66225468       2.44313916      -0.64384735
H        0.64322798       2.43503045       0.67728295
C       -1.78241447       0.00034974      -0.00472694
H       -2.45427497      -0.65498947       0.64260836
H       -2.43311707       0.67328779      -0.65473579
C       -0.91132561       0.90220522       0.91563759
C       -0.01476271      -0.02253852       1.78660255
H       -0.67934791      -0.69751639       2.42135241
H        0.63392994       0.61504881       2.47327442
C        0.01484550      -1.77751727      -0.01636693
H        0.67870853      -2.42144646      -0.68295456
H       -0.62264859      -2.45592969       0.64226336
C        1.78714474       0.01002794       0.00389507
H        2.44202412       0.67113390       0.66197326
H        2.45385902      -0.65136977      -0.64189061
C        0.91606151      -0.90478549       0.90901405
