153
Properties=species:S:1:pos:R:3 pbc="F F F"
C        0.00000000       0.00000000       0.00000000
C        2.35270738       1.70247805      -5.32597596
O        1.27397651       1.49690376      -4.41975310
C        1.55100266       1.64215692      -3.08349401
C        0.73712699       0.84728009      -2.26452945
C        0.88139099       0.88139099      -0.88139099
C        1.82601365       1.71588065      -0.29747967
C        2.63014638       2.52475266      -1.10610250
C        2.50071107       2.50359716      -2.50436405
O        3.21617328       3.31571477      -3.34376998
C        4.31554219       4.02814059      -2.79801197
C        4.98868634       4.93176890      -3.83671232
O        4.84334348       4.82292337      -5.05564359
N        5.80276884       5.91813357      -3.30810733
N        6.00273652       6.01843762      -1.96745479
C        6.71586740       7.01949026      -1.56358809
C        6.99756931       7.20162356      -0.12463576
C        7.82798652       8.24926808       0.27627155
C        8.11497886       8.39360695       1.62765643
O        8.93954852       9.40908840       2.02045586
C        7.58606042       7.52115446       2.57759313
O        7.93265570       7.73433617       3.88564361
C        6.74773717       6.48463073       2.17505979
Br       6.00858195       5.28490305       3.43861751
C        6.45055799       6.32041544       0.82208444
H        2.45948104       2.76429192      -5.56591668
H        2.10262546       1.18476479      -6.25720110
H        3.29086006       1.27378570      -4.95643748
H       -0.00303031       0.19787204      -2.72489586
H        1.93965699       1.75558928       0.78288934
H        3.33735876       3.17523669      -0.60203136
H        5.07380649       3.31982499      -2.44051943
H        3.96226243       4.66868762      -1.98355956
H        6.24877188       6.55565378      -3.95917050
H        7.13664061       7.76368856      -2.26374894
H        8.25909141       8.94241546      -0.43963535
H        9.01117160       9.31676443       2.99270732
H        7.49579537       7.04029556       4.41590602
H        5.80050927       5.50966556       0.50135051
C       -4.88994117      -3.42938146      -1.06183875
O       -4.24192177      -2.20119971      -0.74751190
C       -2.99143193      -2.00676619      -1.27845547
C       -2.17878046      -1.18688653      -0.48326954
C       -0.88139099      -0.88139099      -0.88139099
C       -0.38332384      -1.37589727      -2.08015287
C       -1.19306886      -2.18032488      -2.88760781
C       -2.50497524      -2.50117657      -2.50252048
O       -3.36472380      -3.23272775      -3.27820648
C       -2.82781852      -3.91009259      -4.40378365
C       -3.90952678      -4.64338929      -5.20425149
O       -5.03260418      -4.91417031      -4.77513596
N       -3.54005953      -4.99949345      -6.48945676
N       -2.28945944      -4.74314731      -6.95602218
C       -2.06298588      -5.04163947      -8.19432041
C       -0.72826378      -4.81097187      -8.78459298
C       -0.49173128      -5.20761461     -10.10163715
C        0.77529889      -5.01786906     -10.63835922
O        1.01301063      -5.41913009     -11.92206159
C        1.79907045      -4.43783745      -9.89085475
O        3.01861193      -4.30048175     -10.49947844
C        1.55573912      -4.03182878      -8.58121845
Br       2.92143402      -3.23661249      -7.53968903
C        0.29105979      -4.21730736      -8.02264143
H       -5.41666237      -3.35540937      -2.01761789
H       -5.64503450      -3.60923325      -0.29032359
H       -4.19775407      -4.27852983      -1.04479933
H       -2.57304684      -0.79926577       0.45257502
H        0.62622351      -1.13511871      -2.40346173
H       -0.76653194      -2.52373680      -3.82435807
H       -2.10155260      -4.66229355      -4.07030477
H       -2.35892544      -3.18206169      -5.07352248
H       -4.23461536      -5.46476221      -7.06421859
H       -2.84185313      -5.47412329      -8.84810169
H       -1.26681444      -5.66639610     -10.70793168
H        1.95425453      -5.20400159     -12.08548166
H        3.62157870      -3.89438470      -9.84737891
H        0.09663251      -3.90679141      -6.99866543
C       -1.54609506       2.55460593       5.28046040
O       -0.66935477       2.34238516       4.17889345
C       -1.25169092       2.05511450       2.96984817
C       -0.44408100       1.25767791       2.14717762
C       -0.88139099       0.88139099       0.88139099
C       -2.11930451       1.30517254       0.41489692
C       -2.92378177       2.11497912       1.22224066
C       -2.50072654       2.50441720       2.50352855
O       -3.21636718       3.34443617       3.31485468
C       -4.55808765       3.63135308       2.95225403
C       -5.21684823       4.62063416       3.91968518
O       -4.79285262       4.88216638       5.04689145
N       -6.36204075       5.22966166       3.43730733
N       -6.86071572       4.91531184       2.21260137
C       -7.88879513       5.59354975       1.81660087
C       -8.50731767       5.31185053       0.50466042
C       -9.65756122       6.00980708       0.13361475
C      -10.25220016       5.71543870      -1.08670947
O      -11.38645621       6.38666418      -1.44493934
C       -9.71852126       4.74914598      -1.93804549
O      -10.37872855       4.51860807      -3.11598836
C       -8.56355191       4.06374217      -1.56998597
Br      -7.80954109       2.74914338      -2.70381698
C       -7.95358805       4.34204750      -0.34674656
H       -1.88554706       3.59398620       5.31015638
H       -0.97300144       2.37602292       6.19556698
H       -2.38757129       1.85290513       5.28060681
H        0.52526869       0.93058185       2.51442442
H       -2.46535528       1.02331229      -0.57631064
H       -3.87175500       2.43811752       0.80475429
H       -5.15182986       2.70859324       2.97372781
H       -4.57381656       4.08474589       1.95594717
H       -6.81697116       5.91139761       4.03522740
H       -8.33879932       6.39414282       2.43113598
H      -10.09998618       6.76460762       0.77654842
H      -11.63413895       6.01932099      -2.31823122
H       -9.89138425       3.81489210      -3.58609144
H       -7.05427139       3.80634309      -0.05179015
C        5.34486260      -2.22584299       1.81045580
O        4.40804929      -1.17258121       1.61000288
C        3.07839931      -1.50097829       1.69727600
C        2.25878024      -0.68796438       0.90219191
C        0.88139099      -0.88139099       0.88139099
C        0.30322961      -1.87521634       1.66092802
C        1.11168194      -2.67936369       2.46995591
C        2.50425907      -2.50068802       2.50372520
O        3.34014712      -3.21532230       3.32018861
C        2.80991462      -4.35797305       3.97380709
C        3.84013838      -5.02670787       4.89032131
O        5.05608743      -4.83522237       4.83060065
N        3.30722584      -5.89370685       5.82807704
N        1.97197422      -6.14367499       5.87297971
C        1.55949399      -6.90603928       6.83341248
C        0.12616528      -7.24400779       6.95365557
C       -0.28075285      -8.12508746       7.95664843
C       -1.62511863      -8.46393145       8.04211657
O       -2.02303098      -9.33772966       9.01348237
C       -2.56257653      -7.93727715       7.15492113
O       -3.86390892      -8.33662301       7.30863416
C       -2.15470621      -7.04864559       6.16336873
Br      -3.40158401      -6.31113262       4.94531889
C       -0.80842768      -6.69885587       6.05846081
H        5.55141382      -2.36240548       2.87587034
H        6.28391471      -1.92502187       1.33565476
H        5.02451320      -3.16022208       1.33634795
H        2.71448275       0.09068395       0.29593879
H       -0.77306860      -2.02773023       1.65769530
H        0.61110473      -3.42666757       3.07685451
H        2.50483963      -5.10219246       3.22711882
H        1.96146956      -4.05655494       4.59648512
H        3.95136942      -6.33947920       6.47274754
H        2.24805335      -7.32875039       7.58727437
H        0.42568103      -8.55572959       8.65973160
H       -2.98826891      -9.43975637       8.88374126
H       -4.38510773      -7.89374260       6.61155004
H       -0.48332220      -6.00924526       5.28290127
