138
Properties=species:S:1:pos:R:3 pbc="F F F"
C        2.59805638       5.83255367      -0.80775529
O        3.12547183       5.25195316      -1.99615982
C        2.82464494       3.93236463      -2.22577685
C        2.01724411       3.12426105      -1.42602861
C        1.79290150       1.79290150      -1.79290150
C        2.36468117       1.25794530      -2.94636126
C        3.17976167       2.06191953      -3.74503788
C        3.81276412       1.50688705      -4.95820384
N        3.49503075       0.33628610      -5.41521395
C        4.15175391      -0.11962890      -6.57115445
C        4.24548128       0.64747948      -7.73973888
C        4.89301966       0.14740713      -8.87243078
C        5.43369675      -1.13710586      -8.85296839
C        5.31804732      -1.91346877      -7.70163168
Br       6.02783800      -3.66659152      -7.68076414
C        4.68003853      -1.41206853      -6.56713374
C        3.40401314       3.39226267      -3.38430356
O        4.19026742       4.20123218      -4.16490765
H        2.93131202       6.87402059      -0.76977679
H        2.98467005       5.32523194       0.08238058
H        1.50322624       5.83338914      -0.82065719
H        1.55284591       3.50204830      -0.52152912
H        2.18534220       0.22026680      -3.22084228
H        4.57414187       2.13655014      -5.45437909
H        3.80677033       1.64099543      -7.77447470
H        4.96740310       0.75729021      -9.76919582
H        5.93159279      -1.52500717      -9.73751523
H        4.58331614      -2.01930960      -5.67171243
H        4.18417117       5.07490596      -3.72370697
C       -0.95395995      -2.38218537      -5.90222002
O       -2.09219105      -2.98565674      -5.29573703
C       -2.27582094      -2.75134518      -3.95562030
C       -1.47602734      -1.94431205      -3.14719437
C       -1.79290150      -1.79290150      -1.79290150
C       -2.89639278      -2.43718020      -1.23541474
C       -3.69460959      -3.25200594      -2.04010355
C       -4.85421928      -3.96087893      -1.46275681
N       -5.27211190      -3.71343420      -0.26098471
C       -6.37797757      -4.43926398       0.21396210
C       -7.57429086      -4.55198307      -0.50642571
C       -8.65538966      -5.26948608       0.01201817
C       -8.55636457      -5.86261937       1.26942465
C       -7.37778517      -5.72917242       2.00074736
Br      -7.24950848      -6.51086028       3.71835815
C       -6.29453931      -5.02104523       1.48048081
C       -3.38382148      -3.40363963      -3.39311827
O       -4.16543937      -4.18868364      -4.20228423
H       -0.94795491      -2.66909183      -6.95806265
H       -0.02673209      -2.75021879      -5.45057053
H       -1.01317971      -1.28993866      -5.85415420
H       -0.60954728      -1.42485675      -3.54201930
H       -3.13211524      -2.31418746      -0.18014858
H       -5.34507356      -4.71611458      -2.10388296
H       -7.67139609      -4.07360719      -1.47723718
H       -9.57426641      -5.35754207      -0.56208065
H       -9.40106585      -6.41505637       1.67202137
H       -5.37806526      -4.91063971       2.05298601
H       -3.76390873      -4.12616136      -5.09271400
C       -1.74378562       1.47838076       6.01619896
O       -2.60888979       2.40169059       5.36300444
C       -2.54554692       2.44487628       3.99236321
C       -1.74519149       1.63959721       3.18274506
C       -1.79290150       1.79290150       1.79290150
C       -2.62780119       2.73980498       1.20138156
C       -3.42451753       3.55289796       2.00930359
C       -4.29818239       4.57713747       1.40253515
N       -4.49155367       4.63291672       0.12206042
C       -5.33199225       5.64463568      -0.37334847
C       -6.61496717       5.87962887       0.13810360
C       -7.42389452       6.88562609      -0.39666305
C       -6.96354771       7.65199433      -1.46598276
C       -5.69891889       7.40263729      -1.99534593
Br      -5.08172072       8.42349160      -3.46320170
C       -4.88669460       6.40490318      -1.45649404
C       -3.38236046       3.40130150       3.39691742
O       -4.16915322       4.18148286       4.20577116
H       -1.90960190       1.57184665       7.09366085
H       -0.69344444       1.71629301       5.81778396
H       -1.97846042       0.44758561       5.73122655
H       -1.08296355       0.89039938       3.60306040
H       -2.65507024       2.85209317       0.11928788
H       -4.77503809       5.29667017       2.09336285
H       -6.99378007       5.27258652       0.95587386
H       -8.41342811       7.06397371       0.01648731
H       -7.59751583       8.42972094      -1.88313592
H       -3.90364859       6.20526969      -1.87319932
H       -3.97966631       3.88424877       5.11886901
C        1.70342384      -6.01821767       1.51672383
O        2.54685436      -5.36610717       2.46062329
C        2.52111355      -3.99358526       2.46808761
C        1.71536102      -3.18423705       1.66793570
C        1.79290150      -1.79290150       1.79290150
C        2.66460899      -1.19954060       2.70483814
C        3.47824737      -2.00661627       3.50185543
C        4.42435331      -1.39622466       4.45727704
N        4.40310171      -0.12648438       4.71694471
C        5.34422498       0.37396029       5.63301477
C        5.54145755      -0.19179562       6.89944646
C        6.47637933       0.34927269       7.78575093
C        7.20754842       1.47818655       7.42019742
C        6.99413401       2.06012665       6.17220287
Br       7.96601791       3.60746099       5.68345370
C        6.06783264       1.51556914       5.28284024
C        3.40201615      -3.39593433       3.38262890
O        4.18337330      -4.20505994       4.16797400
H        1.84495060      -7.09689441       1.63326438
H        1.98268768      -5.75330194       0.49153180
H        0.64866535      -5.79773679       1.71087043
H        1.02323635      -3.60604768       0.94713930
H        2.71842083      -0.11611937       2.79191108
H        5.15448441      -2.07438469       4.93620201
H        4.96005421      -1.05759149       7.20459476
H        6.62659129      -0.10585668       8.76144116
H        7.92970269       1.89975038       8.11414853
H        5.89588041       1.97284160       4.31268015
H        3.94431933      -5.12063690       3.91782786
C       -0.00445707       0.01189536      -1.78238275
H       -0.66409135       0.67374010      -2.43557963
H        0.65740317      -0.63156657      -2.45157240
C       -0.90989263      -0.90692880      -0.91072765
C        0.90977584       0.90977584      -0.90977584
C       -0.00465871       1.77757030       0.00794375
H       -0.66225468       2.44313916      -0.64384735
H        0.64322798       2.43503045       0.67728295
C       -1.78241447       0.00034974      -0.00472694
H       -2.45427497      -0.65498947       0.64260836
H       -2.43311707       0.67328779      -0.65473579
C       -0.91132561       0.90220522       0.91563759
C       -0.01476271      -0.02253852       1.78660255
H       -0.67934791      -0.69751639       2.42135241
H        0.63392994       0.61504881       2.47327442
C        0.01484550      -1.77751727      -0.01636693
H        0.67870853      -2.42144646      -0.68295456
H       -0.62264859      -2.45592969       0.64226336
C        1.78714474       0.01002794       0.00389507
H        2.44202412       0.67113390       0.66197326
H        2.45385902      -0.65136977      -0.64189061
C        0.91606151      -0.90478549       0.90901405
