125
Properties=species:S:1:pos:R:3 pbc="F F F"
C        0.00000000       0.00000000       0.00000000
C        1.68815235       4.92264965       0.10214874
O        2.21556780       4.34204914      -1.08625580
C        1.91474092       3.02246060      -1.31587282
C        1.10734008       2.21435703      -0.51612458
C        0.88299747       0.88299747      -0.88299747
C        1.45477715       0.34804127      -2.03645723
C        2.26985765       1.15201551      -2.83513385
C        2.90286010       0.59698303      -4.04829982
N        2.58512673      -0.57361792      -4.50530992
C        3.24184989      -1.02953292      -5.66125042
C        3.33557725      -0.26242455      -6.82983485
C        3.98311564      -0.76249689      -7.96252675
C        4.52379273      -2.04700988      -7.94306437
C        4.40814330      -2.82337279      -6.79172766
C        3.77013450      -2.32197256      -5.65722972
C        2.49410912       2.48235865      -2.47439954
O        3.28036340       3.29132815      -3.25500362
H        2.02140799       5.96411657       0.14012724
H        2.07476603       4.41532792       0.99228461
H        0.59332222       4.92348512       0.08924684
H        0.64294188       2.59214428       0.38837491
H        1.27543818      -0.68963722      -2.31093825
H        3.66423785       1.22664612      -4.54447506
H        2.89686630       0.73109141      -6.86457067
H        4.05749908      -0.15261382      -8.85929180
H        5.02168877      -2.43491120      -8.82761120
H        3.67341211      -2.92921362      -4.76180840
H        3.27426714       4.16500193      -2.81380294
C        4.94851448      -4.15804376      -6.77584098
C        5.40107534      -5.27583070      -6.76253588
Br       6.13282798      -7.08319764      -6.74102267
C       -0.71482772      -0.68359101      -5.11023453
O       -1.62126897      -1.56601784      -4.45658593
C       -1.59503598      -1.57396234      -3.08407603
C       -0.79479074      -0.76843757      -2.27459339
C       -0.88299747      -0.88299747      -0.88299747
C       -1.75827466      -1.79145156      -0.28954944
C       -2.55513800      -2.60483442      -1.09703459
C       -3.47163278      -3.58914437      -0.48736579
N       -3.69990979      -3.60537445       0.78846551
C       -4.57994789      -4.58103859       1.28741909
C       -5.85494209      -4.79601691       0.74797144
C       -6.70436823      -5.76573006       1.28695279
C       -6.29297168      -6.51485205       2.38797651
C       -5.03639342      -6.28455761       2.94445287
C       -4.18378794      -5.32329802       2.40169430
C       -2.47258463      -2.49177570      -2.48650698
O       -3.25862167      -3.27255516      -3.29551835
H       -0.85481752      -0.80163102      -6.18894879
H        0.32317561      -0.94351154      -4.87747342
H       -0.92907361       0.36029024      -4.85877712
H       -0.10186644      -0.04842128      -2.69642354
H       -1.81689012      -1.87383814       0.79398905
H       -3.94941151      -4.31426176      -1.17168576
H       -6.19573731      -4.20147760      -0.09531347
H       -7.68717924      -5.92914507       0.85214725
H       -6.95834066      -7.26420232       2.80815421
H       -3.20698047      -5.13834658       2.83932016
H       -3.03735452      -3.00505637      -4.21066113
C       -4.61702383      -7.04344479       4.09415693
C       -4.26580180      -7.67901279       5.05703407
Br      -3.69790548      -8.70667251       6.61392497
C        0.57892983       2.63806106       4.44952204
O       -0.77114279       2.83212438       4.04060557
C       -1.15209353       2.23768053       2.86330028
C       -0.35219625       1.42886279       2.05676265
C       -0.88299747       0.88299747       0.88299747
C       -2.20067037       1.13490019       0.50370509
C       -3.00176844       1.95047729       1.30476128
C       -4.39274926       2.24747896       0.90791472
N       -4.96494908       1.62883172      -0.07696206
C       -6.28895443       1.97823189      -0.39361893
C       -7.30793222       2.02847121       0.56658413
C       -8.61500650       2.36398568       0.20415330
C       -8.91920457       2.63035419      -1.12971156
C       -7.91400105       2.55421663      -2.09171952
C       -6.60688185       2.22846877      -1.72995896
C       -2.47704332       2.49502687       2.47879711
O       -3.25405830       3.28679845       3.28583842
H        0.72202434       3.17584437       5.39157730
H        1.27568052       3.05738175       3.71610811
H        0.78715419       1.57932742       4.63538727
H        0.67735162       1.20745661       2.31660627
H       -2.60241481       0.70702889      -0.41270449
H       -4.92009932       3.02652220       1.48873751
H       -7.08751241       1.79935973       1.60565625
H       -9.39392480       2.40918332       0.96106894
H       -9.93792699       2.88538105      -1.40891926
H       -5.82432037       2.16201740      -2.48033088
H       -2.68137176       3.53043234       4.04126792
C       -8.22994797       2.80959033      -3.47322661
C       -8.49455351       3.02346581      -4.63023879
Br      -8.92239829       3.36928436      -6.50102963
C        0.47521770      -5.09827586       0.93515970
O        1.43168688      -4.44712410       1.76506176
C        1.50339616      -3.07950239       1.67017580
C        0.69832196      -2.26977874       0.86972099
C        0.88299747      -0.88299747       0.88299747
C        1.86102568      -0.29467763       1.68357235
C        2.67386571      -1.10296016       2.48018113
C        3.73039175      -0.50028016       3.31747102
N        3.81845438       0.78254908       3.48091344
C        4.85928931       1.27347747       4.28775554
C        5.11165903       0.78506787       5.57639640
C        6.14693114       1.31477386       6.35098821
C        6.92601113       2.35638222       5.85021831
C        6.66008606       2.86341619       4.57982830
C        5.63291006       2.32937024       3.80185184
C        2.49107003      -2.48742956       2.47236772
O        3.27077240      -3.29612478       3.25979800
H        0.54879170      -6.17367538       1.12293024
H        0.69387850      -4.92823345      -0.12430260
H       -0.54360026      -4.78527762       1.18588314
H       -0.07449619      -2.68762148       0.23358597
H        1.99752137       0.78497394       1.68419178
H        4.44512874      -1.19642645       3.79380384
H        4.49550353      -0.01045671       5.98656815
H        6.33827410       0.91946960       7.34537255
H        7.72664346       2.76980907       6.45755439
H        5.42051431       2.72884516       2.81433774
H        2.94949006      -4.20627592       3.09730604
C        7.45081974       3.95272535       4.06821729
C        8.11305920       4.86502176       3.63974308
Br       9.18384440       6.34012790       2.94693652
