170
Properties=species:S:1:pos:R:3 pbc="F F F"
C        1.79177760       1.79177760      -1.79177760
C        1.90663597       3.15060519      -1.51202996
C        2.69762447       3.95765510      -2.32848087
C        3.37121759       3.40719776      -3.42448687
C        3.26859730       2.03572124      -3.70309374
C        2.46732901       1.23209163      -2.87533170
C        3.93399148       1.37675570      -4.87259562
O        3.69721589       0.19226453      -5.10005263
N        4.80197673       2.16008901      -5.62979262
N        5.50218048       1.71529753      -6.72826288
C        4.91434118       0.85625268      -7.49467453
C        5.65783574       0.32453025      -8.67272901
N        4.97171693      -0.15349565      -9.65930038
N        5.69938112      -0.66186832     -10.68350755
C        5.16722572      -1.14979553     -11.86387983
O        5.93577336      -1.48588845     -12.76674968
C        3.69362385      -1.25066065     -12.08509876
C        3.24033726      -1.22450530     -13.41571541
C        1.87875085      -1.32725708     -13.71126324
C        0.95348674      -1.45870319     -12.67891051
C        1.39811504      -1.50413674     -11.35890703
C        2.75899107      -1.41726859     -11.05759194
H        1.37911562       3.58990717      -0.66887765
H        2.78092437       5.02156217      -2.11652879
H        3.94811385       4.08321432      -4.04682409
H        2.36241506       0.16897089      -3.08576867
H        5.20045174       2.99630615      -5.21908221
H        3.88541381       0.47676682      -7.38912907
H        6.75658761       0.37368626      -8.61511156
H        6.71321898      -0.61825475     -10.66240340
H        3.95393454      -1.12480674     -14.23225250
H        1.54457309      -1.30621996     -14.74573458
H       -0.10561080      -1.53332756     -12.91177882
H        3.07538231      -1.49484766     -10.02318405
C        0.44075276      -1.64597515     -10.29263346
C       -0.36103816      -1.76476481      -9.39962935
Br      -1.65746625      -1.95683765      -7.95571722
C       -1.79177760      -1.79177760      -1.79177760
C       -3.17612883      -1.73723272      -1.65590956
C       -3.97902413      -2.55579585      -2.44894046
C       -3.39844408      -3.42931674      -3.37514140
C       -2.00405507      -3.47876920      -3.52458802
C       -1.20437477      -2.65128886      -2.71908871
C       -1.30558970      -4.40632805      -4.47142503
O       -0.07764538      -4.45795585      -4.45393182
N       -2.10738439      -5.15178313      -5.33269085
N       -1.63395560      -6.04205585      -6.26972944
C       -0.58324019      -6.72635520      -5.95567300
C       -0.02094450      -7.67276791      -6.96138259
N        0.70795870      -8.65174950      -6.53373086
N        1.22767119      -9.45467723      -7.49401430
C        1.96805594     -10.59811049      -7.25125547
O        2.29510397     -11.30662621      -8.20511234
C        2.35336406     -11.01238821      -5.86903781
C        2.60146984     -12.37940309      -5.65361413
C        2.98016916     -12.84931100      -4.39361516
C        3.11656521     -11.95690019      -3.33335908
C        2.89028917     -10.59816193      -3.54501258
C        2.52633641     -10.11999678      -4.80565405
H       -3.63658006      -1.06934247      -0.93197791
H       -5.06073093      -2.52095700      -2.33732740
H       -4.06521206      -4.06759682      -3.94534337
H       -0.11992174      -2.68795967      -2.80927321
H       -3.05095072      -4.83776965      -5.52711972
H       -0.05134562      -6.70898129      -4.99098278
H       -0.26711599      -7.46390624      -8.01436319
H        1.00692728      -9.29288151      -8.47141340
H        2.50089620     -13.08719233      -6.47508417
H        3.16922250     -13.90952682      -4.24378339
H        3.40640800     -12.32623111      -2.35301736
H        2.39543555      -9.05268368      -4.94647058
C        3.03737510      -9.67562802      -2.44915815
C        3.16055957      -8.90300587      -1.53138007
Br       3.35973843      -7.65374121      -0.04741054
C       -1.79177760       1.79177760       1.79177760
C       -3.17561825       1.74590394       1.64774892
C       -3.97836838       2.56452252       2.44086954
C       -3.39813598       3.42944794       3.37531830
C       -2.00436423       3.47009505       3.53295301
C       -1.20480845       2.64264862       2.72729527
C       -1.30606149       4.38826700       4.48901430
O       -0.07776422       4.43298614       4.47878270
N       -2.10851514       5.13338650       5.34995673
N       -1.63539732       6.01561309       6.29473048
C       -0.57904181       6.69567701       5.99054958
C       -0.01713328       7.63314513       7.00481659
N        0.71974040       8.61036236       6.58689971
N        1.23851226       9.40485083       7.55468177
C        1.98674516      10.54539994       7.32265525
O        2.31235984      11.24661520       8.28237923
C        2.38227758      10.96530752       5.94503202
C        2.63935993      12.33208470       5.73882260
C        3.02790203      12.80696501       4.48369402
C        3.16528022      11.91982000       3.41915429
C        2.93009538      10.56121600       3.62176471
C        2.55624885      10.07799095       4.87757232
H       -3.63571320       1.08476955       0.91741768
H       -5.05960099       2.53648986       2.32292448
H       -4.06451460       4.06827680       3.94536086
H       -0.12069704       2.67261908       2.82383849
H       -3.05494176       4.82366380       5.53723454
H       -0.04175883       6.68074181       5.02880906
H       -0.27048968       7.41972094       8.05517481
H        1.01128088       9.23877478       8.52987374
H        2.53811801      13.03576444       6.56373387
H        3.22381904      13.86691787       4.34098888
H        3.46280244      12.29304697       2.44259594
H        2.41849360       9.01066037       5.01155193
C        3.07819532       9.64408983       2.52151656
C        3.20222901       8.87599666       1.60005873
Br       3.40278101       7.63405497       0.11013936
C        1.79177760      -1.79177760       1.79177760
C        2.25425674      -3.01087123       1.30414314
C        3.04422138      -3.82290753       2.11663153
C        3.36960414      -3.41753016       3.41576792
C        2.91624598      -2.18385568       3.90731062
C        2.11923208      -1.37443733       3.08108293
C        3.19640207      -1.69232118       5.29461954
O        2.66528047      -0.65064242       5.67361017
N        4.06556044      -2.45457630       6.07172164
N        4.43947744      -2.14619150       7.36007195
C        3.54708081      -1.59943912       8.11874845
C        3.92880346      -1.21763664       9.50865490
N        2.98719638      -1.10261570      10.38770958
N        3.38669184      -0.71185322      11.62247528
C        2.55544744      -0.60263932      12.72322327
O        3.05428817      -0.34261020      13.81973622
C        1.08117629      -0.82097250      12.62591316
C        0.41264014      -1.22349467      13.79541256
C       -0.96812910      -1.43633163      13.79455448
C       -1.69767092      -1.24787739      12.62348760
C       -1.04362938      -0.83080389      11.46571082
C        0.33396983      -0.60159434      11.46375025
H        1.99852276      -3.33958399       0.29979369
H        3.39869468      -4.78017758       1.74014307
H        3.96033030      -4.09949791       4.01832405
H        1.74449702      -0.42148292       3.45117468
H        4.70727841      -3.09265995       5.61590174
H        2.49590853      -1.39797995       7.85742122
H        5.00290447      -1.05373176       9.68874919
H        4.37161316      -0.56606926      11.81968520
H        0.97124580      -1.37175222      14.71838230
H       -1.47025617      -1.74665362      14.70769026
H       -2.77104923      -1.41917113      12.62471857
H        0.80647811      -0.24031848      10.55692211
C       -1.80011704      -0.63064421      10.25688390
C       -2.43367545      -0.46301048       9.24449135
Br      -3.45808583      -0.19196091       7.60753823
C       -0.00445707       0.01189536      -1.78238275
H       -0.66409135       0.67374010      -2.43557963
H        0.65740317      -0.63156657      -2.45157240
C       -0.90989263      -0.90692880      -0.91072765
C        0.90977584       0.90977584      -0.90977584
C       -0.00465871       1.77757030       0.00794375
H       -0.66225468       2.44313916      -0.64384735
H        0.64322798       2.43503045       0.67728295
C       -1.78241447       0.00034974      -0.00472694
H       -2.45427497      -0.65498947       0.64260836
H       -2.43311707       0.67328779      -0.65473579
C       -0.91132561       0.90220522       0.91563759
C       -0.01476271      -0.02253852       1.78660255
H       -0.67934791      -0.69751639       2.42135241
H        0.63392994       0.61504881       2.47327442
C        0.01484550      -1.77751727      -0.01636693
H        0.67870853      -2.42144646      -0.68295456
H       -0.62264859      -2.45592969       0.64226336
C        1.78714474       0.01002794       0.00389507
H        2.44202412       0.67113390       0.66197326
H        2.45385902      -0.65136977      -0.64189061
C        0.91606151      -0.90478549       0.90901405
