162
Properties=species:S:1:pos:R:3 pbc="F F F"
C        1.79177760       1.79177760      -1.79177760
C        1.90663597       3.15060519      -1.51202996
C        2.69762447       3.95765510      -2.32848087
C        3.37121759       3.40719776      -3.42448687
C        3.26859730       2.03572124      -3.70309374
C        2.46732901       1.23209163      -2.87533170
C        3.93399148       1.37675570      -4.87259562
O        3.69721589       0.19226453      -5.10005263
N        4.80197673       2.16008901      -5.62979262
N        5.50218048       1.71529753      -6.72826288
C        4.91434118       0.85625268      -7.49467453
C        5.65783574       0.32453025      -8.67272901
N        4.97171693      -0.15349565      -9.65930038
N        5.69938112      -0.66186832     -10.68350755
C        5.16722572      -1.14979553     -11.86387983
O        5.93577336      -1.48588845     -12.76674968
C        3.69362385      -1.25066065     -12.08509876
C        3.24033726      -1.22450530     -13.41571541
C        1.87875085      -1.32725708     -13.71126324
C        0.95348674      -1.45870319     -12.67891051
C        1.39811504      -1.50413674     -11.35890703
Br       0.14024119      -1.69049756      -9.95793515
C        2.75899107      -1.41726859     -11.05759194
H        1.37911562       3.58990717      -0.66887765
H        2.78092437       5.02156217      -2.11652879
H        3.94811385       4.08321432      -4.04682409
H        2.36241506       0.16897089      -3.08576867
H        5.20045174       2.99630615      -5.21908221
H        3.88541381       0.47676682      -7.38912907
H        6.75658761       0.37368626      -8.61511156
H        6.71321898      -0.61825475     -10.66240340
H        3.95393454      -1.12480674     -14.23225250
H        1.54457309      -1.30621996     -14.74573458
H       -0.10561080      -1.53332756     -12.91177882
H        3.07538231      -1.49484766     -10.02318405
C       -1.79177760      -1.79177760      -1.79177760
C       -2.16325725      -1.34812468      -3.05788919
C       -2.98293107      -2.14625413      -3.85457524
C       -3.43234659      -3.38544348      -3.38511216
C       -3.05030757      -3.84251648      -2.11458824
C       -2.22593225      -3.02951301      -1.31930708
C       -3.51224284      -5.14196855      -1.52913139
O       -3.21580143      -5.40753444      -0.36619720
N       -4.24848059      -5.98331335      -2.36006443
N       -4.74158835      -7.21405684      -1.99009570
C       -5.15081434      -7.34363796      -0.77081610
C       -5.65618524      -8.67378319      -0.32512657
N       -6.45665037      -8.71086604       0.68999475
N       -6.84999647      -9.94860383       1.07757996
C       -7.76053865     -10.20751803       2.08674665
O       -8.12178910     -11.37053061       2.27568512
C       -8.33890410      -9.11813527       2.92897742
C       -9.59198930      -9.35888382       3.51932575
C      -10.19758141      -8.39798499       4.33280939
C       -9.55624006      -7.18428939       4.56683539
C       -8.30550988      -6.94711976       3.99974431
Br      -7.43208730      -5.30059696       4.32500547
C       -7.68788207      -7.90948486       3.19805251
H       -1.82776099      -0.38232564      -3.42781382
H       -3.28165115      -1.79671211      -4.84065206
H       -4.09352749      -3.95394768      -4.03067709
H       -1.93280740      -3.36016121      -0.32418601
H       -4.18068096      -5.87041486      -3.36474429
H       -5.19360659      -6.55357987      -0.00412324
H       -5.30182240      -9.54427729      -0.89928573
H       -6.54882075     -10.76740537       0.55885849
H      -10.10272324     -10.30499073       3.34633367
H      -11.16664003      -8.60007281       4.78262513
H      -10.03225732      -6.43667228       5.19608914
H       -6.69765531      -7.70962036       2.80355697
C       -1.79177760       1.79177760       1.79177760
C       -3.04333168       1.33296029       2.19297914
C       -3.85454704       2.14622476       2.98298864
C       -3.41584415       3.41745661       3.36960146
C       -2.14992312       3.87932438       2.97816479
C       -1.34154868       3.05268180       2.18052185
C       -1.62042163       5.23706446       3.32585670
O       -0.54737380       5.59626386       2.84589541
N       -2.38605342       6.01038575       4.19541920
N       -2.04636819       7.27267520       4.62669750
C       -1.44107342       8.04183670       3.78235827
C       -1.02477598       9.40259932       4.22771969
N       -0.84462708      10.30946258       3.32343200
N       -0.42548852      11.51433163       3.78120019
C       -0.24736349      12.63893165       2.99501489
O        0.03272141      13.70699810       3.54235790
C       -0.41506882      12.60158680       1.51140633
C       -0.75153750      13.80778915       0.87222072
C       -0.91377002      13.86328175      -0.51429477
C       -0.74015689      12.71251748      -1.27898031
C       -0.38821442      11.51800200      -0.65333108
Br      -0.14519946       9.95715405      -1.69467473
C       -0.20961391      11.45920875       0.73049176
H       -3.39763577       0.35088954       1.88937513
H       -4.83676365       1.79266159       3.28959009
H       -4.09727838       4.02332541       3.95754846
H       -0.36312825       3.40072686       1.85329951
H       -3.06276207       5.55584373       4.79723430
H       -1.21072910       7.81048624       2.73009435
H       -0.89392050       9.53868840       5.31277653
H       -0.30887572      11.67131334       4.77717857
H       -0.88750108      14.71532392       1.45855531
H       -1.17324745      14.80423147      -0.99339120
H       -0.87203760      12.75776472      -2.35696186
H        0.10205416      10.52374236       1.18203050
C        1.79177760      -1.79177760       1.79177760
C        1.49512599      -1.92923531       3.14490982
C        2.31135287      -2.72009854       3.95230903
C        3.42398573      -3.37098841       3.40792808
C        3.71983877      -3.24560701       2.04196650
C        2.89211396      -2.44466765       1.23797072
C        4.90732115      -3.88579489       1.39022675
O        5.14762552      -3.62956909       0.21233845
N        5.66569447      -4.75412088       2.17204302
N        6.77971714      -5.43304489       1.73297886
C        7.54957457      -4.82296906       0.89272476
C        8.74495196      -5.54288657       0.36725647
N        9.72836717      -4.83681728      -0.08766279
N       10.76938857      -5.54333032      -0.59169855
C       11.94883370      -4.98841323      -1.05593691
O       12.86675503      -5.73984202      -1.38996247
C       12.15099646      -3.51067466      -1.13360916
C       13.47473239      -3.03967448      -1.08285951
C       13.75278579      -1.67288961      -1.16291839
C       12.70961873      -0.76007162      -1.29599629
C       11.39663728      -1.22200352      -1.36575547
Br       9.98106772       0.01909011      -1.55429883
C       11.11302467      -2.58793707      -1.30164732
H        0.63883748      -1.41940137       3.57966159
H        2.08607259      -2.82099743       5.01194530
H        4.04496150      -3.94863605       4.08455471
H        3.11556960      -2.32219034       0.17939467
H        5.24916232      -5.16969747       2.99698031
H        7.43499068      -3.79042545       0.52589357
H        8.70187852      -6.64289748       0.40060942
H       10.76172218      -6.55786822      -0.56222277
H       14.29962894      -3.74337192      -0.98162055
H       14.78215039      -1.32494693      -1.12300961
H       12.92880626       0.30303682      -1.35292898
H       10.08424912      -2.91731332      -1.39784374
C       -0.00445707       0.01189536      -1.78238275
H       -0.66409135       0.67374010      -2.43557963
H        0.65740317      -0.63156657      -2.45157240
C       -0.90989263      -0.90692880      -0.91072765
C        0.90977584       0.90977584      -0.90977584
C       -0.00465871       1.77757030       0.00794375
H       -0.66225468       2.44313916      -0.64384735
H        0.64322798       2.43503045       0.67728295
C       -1.78241447       0.00034974      -0.00472694
H       -2.45427497      -0.65498947       0.64260836
H       -2.43311707       0.67328779      -0.65473579
C       -0.91132561       0.90220522       0.91563759
C       -0.01476271      -0.02253852       1.78660255
H       -0.67934791      -0.69751639       2.42135241
H        0.63392994       0.61504881       2.47327442
C        0.01484550      -1.77751727      -0.01636693
H        0.67870853      -2.42144646      -0.68295456
H       -0.62264859      -2.45592969       0.64226336
C        1.78714474       0.01002794       0.00389507
H        2.44202412       0.67113390       0.66197326
H        2.45385902      -0.65136977      -0.64189061
C        0.91606151      -0.90478549       0.90901405
