130
Properties=species:S:1:pos:R:3 pbc="F F F"
C        1.79167599       1.79167599      -1.79167599
C        1.48812449       3.14603076      -1.93389641
C        2.28857044       3.95838724      -2.73993052
C        3.38703530       3.40775985      -3.40133022
O        4.16746835       4.20436035      -4.19170483
C        3.68948781       2.04832228      -3.25988767
C        4.84500720       1.46652065      -3.97937502
N        5.14922772       0.21192921      -3.87029455
C        6.21718921      -0.19442430      -4.60681136
S        6.67869522      -1.85648749      -4.49751309
C        7.94338251      -1.59802354      -5.63248139
C        8.87313895      -2.51596685      -6.15021238
C        9.80845484      -2.04382550      -7.07549735
Br      11.07570496      -3.24688688      -7.80235527
C        9.82662158      -0.71107944      -7.47355150
C        8.89514928       0.18975233      -6.94659658
C        7.93771013      -0.25775447      -6.01400472
N        6.96144217       0.52152343      -5.42362275
C        2.88825208       1.23611383      -2.44903406
H        0.63074153       3.57654139      -1.42208128
H        2.03895425       5.01046051      -2.84063134
H        3.82150902       5.11256093      -4.18130289
H        5.42283523       2.16327672      -4.61530067
H        8.85719546      -3.55544527      -5.83909318
H       10.55863299      -0.35578344      -8.19451191
H        8.89852684       1.23188476      -7.25059143
H        3.11669427       0.17903627      -2.33601703
C       -1.79167599      -1.79167599      -1.79167599
C       -1.75771104      -3.17742118      -1.63291944
C       -2.55968447      -3.99050114      -2.43670259
C       -3.38890897      -3.40997291      -3.39724350
O       -4.17101126      -4.20804726      -4.18447500
C       -3.42062143      -2.01968482      -3.55739151
C       -4.28830725      -1.41147911      -4.59111651
N       -4.33805507      -0.12858971      -4.76480671
C       -5.15513919       0.29211824      -5.76655532
S       -5.27130902       1.99435242      -6.04276421
C       -6.34821945       1.72554446      -7.35516537
C       -6.96298484       2.66077610      -8.20517574
C       -7.80334302       2.17350359      -9.21028728
Br      -8.64766451       3.39749311     -10.38100195
C       -8.03073557       0.81035127      -9.36870934
C       -7.41232872      -0.10677422      -8.51239524
C       -6.55706543       0.35450998      -7.49140493
N       -5.88103724      -0.44002725      -6.58552386
C       -2.61874523      -1.20587689      -2.74877785
H       -1.10987100      -3.63216697      -0.88732623
H       -2.52167614      -5.06728781      -2.30108215
H       -4.02927083      -5.13964803      -3.94645398
H       -4.88099299      -2.11593911      -5.20448052
H       -6.78403368       3.72380251      -8.08061220
H       -8.68601087       0.44335235     -10.15470294
H       -7.58095735      -1.17302444      -8.62702123
H       -2.63743519      -0.12533350      -2.86897889
C       -1.79167599       1.79167599       1.79167599
C       -3.15488385       1.51445116       1.89871664
C       -3.96804360       2.31728581       2.70155878
C       -3.41057488       3.39540642       3.39014408
O       -4.20899624       4.18125420       4.17328308
C       -2.04317694       3.67418699       3.28033384
C       -1.46173814       4.83078533       3.99837940
N       -0.20062930       5.11562493       3.91519725
C        0.19345546       6.22007028       4.60296145
S        1.86680459       6.64801503       4.53851038
C        1.57005045       8.02656676       5.52132405
C        2.47157582       9.00514558       5.97381472
C        1.96640626      10.03867823       6.76785473
Br       3.14427075      11.38085694       7.39458716
C        0.61844667      10.10208582       7.10545449
C       -0.26484058       9.11844094       6.64821667
C        0.21474893       8.06559671       5.84311259
N       -0.54719684       7.03778778       5.32160373
C       -1.22884267       2.86662966       2.47792764
H       -3.59204964       0.67685877       1.36045579
H       -5.02716808       2.08863792       2.77424011
H       -5.12338032       3.85368288       4.13830965
H       -2.16722776       5.43458454       4.59960032
H        3.52271177       8.95453582       5.70901932
H        0.23718451      10.91131339       7.72323259
H       -1.31913014       9.15797048       6.90390240
H       -0.16619859       3.07851856       2.38703042
C        1.79167599      -1.79167599       1.79167599
C        3.17949168      -1.66562144       1.72293854
C        3.99252524      -2.46965898       2.52470399
C        3.40977473      -3.39772343       3.38862722
O        4.20772556      -4.18531946       4.17048851
C        2.01733543      -3.52511490       3.45524743
C        1.40616134      -4.52482504       4.35991649
N        0.12117551      -4.66781538       4.44246059
C       -0.30304243      -5.64101314       5.29160556
S       -2.00793312      -5.87533630       5.45231764
C       -1.74399942      -7.16903840       6.55280138
C       -2.68371633      -7.98329454       7.20780627
C       -2.19996366      -8.98020388       8.05988647
Br      -3.43021882     -10.10320178       8.95819039
C       -0.83584848      -9.16477141       8.26017071
C        0.08582959      -8.34388039       7.60178821
C       -0.37193403      -7.33203286       6.73386156
N        0.42700835      -6.46007719       6.01950281
C        1.20368508      -2.71623042       2.65348447
H        3.63586429      -0.94542593       1.04807399
H        5.07092924      -2.35971684       2.45940002
H        5.14093517      -3.97202307       4.00241460
H        2.11009888      -5.14074792       4.95056581
H       -3.74750798      -7.83837901       7.04997234
H       -0.47163805      -9.94407030       8.92492921
H        1.15282940      -8.47916957       7.74900405
H        0.12142869      -2.81110889       2.69920999
C       -0.00445707       0.01189536      -1.78238275
H       -0.66409135       0.67374010      -2.43557963
H        0.65740317      -0.63156657      -2.45157240
C       -0.90989263      -0.90692880      -0.91072765
C        0.90977584       0.90977584      -0.90977584
C       -0.00465871       1.77757030       0.00794375
H       -0.66225468       2.44313916      -0.64384735
H        0.64322798       2.43503045       0.67728295
C       -1.78241447       0.00034974      -0.00472694
H       -2.45427497      -0.65498947       0.64260836
H       -2.43311707       0.67328779      -0.65473579
C       -0.91132561       0.90220522       0.91563759
C       -0.01476271      -0.02253852       1.78660255
H       -0.67934791      -0.69751639       2.42135241
H        0.63392994       0.61504881       2.47327442
C        0.01484550      -1.77751727      -0.01636693
H        0.67870853      -2.42144646      -0.68295456
H       -0.62264859      -2.45592969       0.64226336
C        1.78714474       0.01002794       0.00389507
H        2.44202412       0.67113390       0.66197326
H        2.45385902      -0.65136977      -0.64189061
C        0.91606151      -0.90478549       0.90901405
