138
Properties=species:S:1:pos:R:3 pbc="F F F"
C        1.79167599       1.79167599      -1.79167599
C        1.48812449       3.14603076      -1.93389641
C        2.28857044       3.95838724      -2.73993052
C        3.38703530       3.40775985      -3.40133022
O        4.16746835       4.20436035      -4.19170483
C        3.68948781       2.04832228      -3.25988767
C        4.84500720       1.46652065      -3.97937502
N        5.14922772       0.21192921      -3.87029455
C        6.21718921      -0.19442430      -4.60681136
S        6.67869522      -1.85648749      -4.49751309
C        7.94338251      -1.59802354      -5.63248139
C        8.87313895      -2.51596685      -6.15021238
C        9.80845484      -2.04382550      -7.07549735
C        9.82662158      -0.71107944      -7.47355150
C        8.89514928       0.18975233      -6.94659658
C        7.93771013      -0.25775447      -6.01400472
N        6.96144217       0.52152343      -5.42362275
C        2.88825208       1.23611383      -2.44903406
H        0.63074153       3.57654139      -1.42208128
H        2.03895425       5.01046051      -2.84063134
H        3.82150902       5.11256093      -4.18130289
H        5.42283523       2.16327672      -4.61530067
H        8.85719546      -3.55544527      -5.83909318
H       10.55863299      -0.35578344      -8.19451191
H        8.89852684       1.23188476      -7.25059143
H        3.11669427       0.17903627      -2.33601703
C       10.77269712      -2.95922699      -7.62855876
C       11.58025003      -3.72587575      -8.09174769
Br      12.88599479      -4.96548194      -8.84068502
C       -1.79167599      -1.79167599      -1.79167599
C       -1.81498523      -3.17088443      -1.58218199
C       -2.61730683      -3.98401687      -2.38556450
C       -3.38939351      -3.41025475      -3.39647712
O       -4.17190590      -4.20849853      -4.18312909
C       -3.36361595      -2.02664198      -3.60743983
C       -4.17045922      -1.42658206      -4.69386160
N       -4.16620159      -0.15008154      -4.91516835
C       -4.93063039       0.26210586      -5.96105174
S       -4.97343460       1.95596006      -6.30224628
C       -6.01184770       1.67731506      -7.64330773
C       -6.56053313       2.60172817      -8.54857953
C       -7.38185259       2.10785694      -9.56613105
C       -7.65395760       0.74878620      -9.68392225
C       -7.10118821      -0.15744106      -8.77286891
C       -6.26651939       0.31053267      -7.73797366
N       -5.65342372      -0.47349263      -6.77967200
C       -2.56153757      -1.21259942      -2.79926298
H       -1.21165589      -3.62052250      -0.79718582
H       -2.62425821      -5.05568476      -2.21010314
H       -4.07353576      -5.13508539      -3.90675170
H       -4.76656048      -2.13166184      -5.30319030
H       -6.34675267       3.66155141      -8.45564210
H       -8.29382481       0.37654087     -10.48007753
H       -7.30513613      -1.22048434      -8.85538255
H       -2.53570677      -0.13729903      -2.95874177
C       -7.95685749       3.02784486     -10.51301626
C       -8.43842409       3.79833474     -11.30603263
Br      -9.21707655       5.04415171     -12.58827302
C       -1.79167599       1.79167599       1.79167599
C       -3.17325400       1.59711719       1.79768047
C       -3.98637361       2.40061843       2.59989617
C       -3.41017522       3.39670563       3.38924453
O       -4.20837210       4.18353006       4.17163136
C       -2.02415030       3.59271139       3.38083607
C       -1.42121823       4.66363161       4.20605303
N       -0.14241687       4.87092379       4.21811082
C        0.27269062       5.90383729       4.99842960
S        1.96958211       6.22590256       5.06340037
C        1.69413752       7.55857459       6.11340329
C        2.62225231       8.44760786       6.68202893
C        2.13047592       9.46153580       7.50906682
C        0.76985702       9.59129604       7.76765462
C       -0.14009208       8.69632639       7.19507971
C        0.32574807       7.66548670       6.35422176
N       -0.46186423       6.72258688       5.72213724
C       -1.21017549       2.78440373       2.57882075
H       -3.62474176       0.82371952       1.18090293
H       -5.05989790       2.23688484       2.59326337
H       -5.13677221       3.91844279       4.06015785
H       -2.12614114       5.27415689       4.80111459
H        3.68328853       8.34535422       6.47877768
H        0.39927929      10.38449027       8.41215049
H       -1.20435321       8.78829983       7.38834998
H       -0.13298538       2.93232203       2.56644016
C        3.05432922      10.39193994       8.10441817
C        3.82805635      11.17115340       8.60302493
Br       5.07910769      12.43107566       9.40922989
C        1.79167599      -1.79167599       1.79167599
C        3.17972004      -1.71612292       1.67220870
C        3.99266448      -2.52054800       2.47367572
C        3.40944578      -3.39844513       3.38823446
O        4.20718602      -4.18659163       4.16975587
C        2.01666544      -3.47524433       3.50578800
C        1.40406930      -4.42235623       4.46447734
N        0.11864711      -4.51792400       4.59488037
C       -0.30824510      -5.44688604       5.49093533
S       -2.01343488      -5.61652495       5.71663075
C       -1.75499693      -6.88103629       6.85180099
C       -2.69819323      -7.63988842       7.56568929
C       -2.21886011      -8.62387594       8.43511087
C       -0.85556918      -8.84876081       8.59590201
C        0.06971431      -8.08276991       7.87901397
C       -0.38370870      -7.08529176       6.99237731
N        0.41875219      -6.26591889       6.22191727
C        1.20326720      -2.66595650       2.70417627
H        3.63629729      -1.03515052       0.95791640
H        5.07123548      -2.45025998       2.36855065
H        5.14063140      -4.01148104       3.96326041
H        2.10702960      -5.04217254       5.05221048
H       -3.76136617      -7.46358798       7.43862155
H       -0.49484328      -9.61751996       9.27468479
H        1.13604617      -8.24992161       7.99503524
H        0.12067449      -2.72172015       2.78935294
C       -3.15879583      -9.42207838       9.17874634
C       -3.94599199     -10.09057293       9.80154104
Br      -5.21882161     -11.17147207      10.80854740
C       -0.00445707       0.01189536      -1.78238275
H       -0.66409135       0.67374010      -2.43557963
H        0.65740317      -0.63156657      -2.45157240
C       -0.90989263      -0.90692880      -0.91072765
C        0.90977584       0.90977584      -0.90977584
C       -0.00465871       1.77757030       0.00794375
H       -0.66225468       2.44313916      -0.64384735
H        0.64322798       2.43503045       0.67728295
C       -1.78241447       0.00034974      -0.00472694
H       -2.45427497      -0.65498947       0.64260836
H       -2.43311707       0.67328779      -0.65473579
C       -0.91132561       0.90220522       0.91563759
C       -0.01476271      -0.02253852       1.78660255
H       -0.67934791      -0.69751639       2.42135241
H        0.63392994       0.61504881       2.47327442
C        0.01484550      -1.77751727      -0.01636693
H        0.67870853      -2.42144646      -0.68295456
H       -0.62264859      -2.45592969       0.64226336
C        1.78714474       0.01002794       0.00389507
H        2.44202412       0.67113390       0.66197326
H        2.45385902      -0.65136977      -0.64189061
C        0.91606151      -0.90478549       0.90901405
