165
Properties=species:S:1:pos:R:3 pbc="F F F"
C        0.00000000       0.00000000       0.00000000
C        0.88229643       0.88229643      -0.88229643
C        0.78956152       0.77936735      -2.27037524
C        1.58347099       1.59079899      -3.08081308
C        2.47620862       2.49422689      -2.50161448
C        2.58511755       2.57768249      -1.10482330
C        1.77129765       1.77942946      -0.29274193
C        3.53797848       3.52115700      -0.45343816
O        3.20848838       4.04678610       0.60308363
N        4.73697320       3.67660935      -1.12170002
C        5.79842210       4.54705375      -0.79982196
C        5.78503349       5.44269212       0.26834272
C        6.88044808       6.28081228       0.49853011
C        7.98774425       6.24078599      -0.34998575
C        8.01067069       5.36619646      -1.43529520
N        9.14391746       5.33840906      -2.26883697
C        8.94388968       5.49265716      -3.54101411
C       10.06225287       5.45702658      -4.50418090
C        9.74181704       5.47272940      -5.86663166
C       10.76545845       5.44016845      -6.81257277
C       12.10045401       5.40107097      -6.41608719
C       12.41708815       5.38615068      -5.05536818
Cl      14.08394747       5.33977824      -4.60741372
C       11.40185429       5.40779817      -4.09253034
O       11.74409064       5.38391088      -2.76495005
C        6.92392451       4.50533825      -1.63473844
H        0.09492556       0.07955895      -2.72792696
H        1.49694065       1.52550243      -4.16331709
H        3.05642792       3.14521526      -3.15043773
H        1.83940585       1.86157540       0.78999055
H        4.89970483       3.06726106      -1.91154734
H        4.93889899       5.51038894       0.94605977
H        6.86771616       6.96496515       1.34335070
H        8.83554355       6.89452838      -0.16286810
H        7.93114353       5.65002034      -3.95838641
H        8.70442646       5.50316288      -6.19156258
H       12.89501152       5.38043693      -7.15791578
H       10.91605342       5.34831254      -2.23390275
H        6.96669880       3.79745908      -2.45689186
C       10.43672846       5.44522031      -8.21453963
C       10.16141709       5.44945124      -9.38868687
Br       9.71626190       5.45629230     -11.28718366
C       -0.88229643      -0.88229643      -0.88229643
C       -2.26751203      -0.85127432      -0.72051777
C       -3.07864806      -1.64517153      -1.53126348
C       -2.50231858      -2.47654417      -2.49318724
C       -1.10695579      -2.52412707      -2.63654048
C       -0.29551604      -1.70976032      -1.83819267
C       -0.45782669      -3.41094333      -3.64380362
O        0.56209356      -3.01735989      -4.19692452
N       -1.08375951      -4.62944870      -3.82207436
C       -0.75625408      -5.64121907      -4.74782465
C        0.27253691      -5.54802510      -5.68389469
C        0.51119131      -6.59878626      -6.57513530
C       -0.29025056      -7.74097780      -6.54728763
C       -1.33665035      -7.84356694      -5.63194507
N       -2.12261792      -9.01055982      -5.61798575
C       -3.40703555      -8.85739974      -5.71312566
C       -4.32268140     -10.01521200      -5.68556696
C       -5.69627442      -9.75108737      -5.63381631
C       -6.59861552     -10.81349881      -5.60608533
C       -6.14809516     -12.13143282      -5.63808419
C       -4.77641455     -12.39180263      -5.69038984
Cl      -4.26101648     -14.03921163      -5.73091133
C       -3.85641853     -11.33751916      -5.70824511
O       -2.51643300     -11.62517742      -5.75134115
C       -1.54332532      -6.80109095      -4.71958493
H       -2.72295018      -0.20454599       0.02508470
H       -4.16010398      -1.60619658      -1.41945961
H       -3.15395866      -3.05679051      -3.14133175
H        0.78473806      -1.72966423      -1.96606453
H       -1.84060793      -4.84883599      -3.18906931
H        0.91269784      -4.67253602      -5.74338998
H        1.32578828      -6.52390176      -7.29121713
H       -0.09680481      -8.55364453      -7.24249070
H       -3.87049425      -7.85734726      -5.81170877
H       -6.06316877      -8.72764969      -5.60833345
H       -6.85626072     -12.95621337      -5.62089014
H       -2.01770407     -10.77793435      -5.70263029
H       -2.33311590      -6.90597304      -3.98196079
C       -8.01154826     -10.54315311      -5.54178703
C       -9.19487943     -10.31673858      -5.48793719
Br     -11.10822585      -9.95064544      -5.40086657
C       -0.88229643       0.88229643       0.88229643
C       -1.90910828       1.62763177       0.30256406
C       -2.72545559       2.42518781       1.10443966
C       -2.50567227       2.48469909       2.48167863
C       -1.45602752       1.75304567       3.05855015
C       -0.65230418       0.93516776       2.25599710
C       -1.18450547       1.80459158       4.52347660
O       -0.78458429       0.78850500       5.07910156
N       -1.39191758       3.04213135       5.10123364
C       -1.29448080       3.38558165       6.46523535
C       -0.99199219       2.48339230       7.48399839
C       -0.93501797       2.91480336       8.81290892
C       -1.19888914       4.24753831       9.13208854
C       -1.52318525       5.15982828       8.12914882
N       -1.77417808       6.49988124       8.47710415
C       -2.89261580       7.01511359       8.06983156
C       -3.24250825       8.41946745       8.36148465
C       -4.39041380       8.93892810       7.75183620
C       -4.75960237      10.26059741       7.99799988
C       -4.00420845      11.06422625       8.84917747
C       -2.85929038      10.54259961       9.45671701
Cl      -1.95327896      11.57175710      10.50610338
C       -2.46838852       9.22132626       9.21246802
O       -1.33531227       8.74073833       9.81690098
C       -1.54117308       4.72503221       6.79779591
H       -2.08712189       1.58418626      -0.76889668
H       -3.53926270       2.99079869       0.65569878
H       -3.17791904       3.08068841       3.09347346
H        0.14621600       0.34997567       2.70723102
H       -1.59596382       3.80825952       4.47428988
H       -0.78898986       1.43644636       7.27779194
H       -0.68281992       2.20746276       9.59904792
H       -1.15084426       4.57473415      10.16736162
H       -3.62625831       6.42986594       7.48342604
H       -4.99023120       8.32392083       7.08499988
H       -4.29915297      12.09288787       9.04132339
H       -1.17967955       7.82365658       9.49493257
H       -1.75304797       5.45010320       6.01789857
C       -5.93421694      10.79947847       7.36279298
C       -6.91795665      11.25079136       6.83080720
Br      -8.50858055      11.98052612       5.97063118
C        0.88229643      -0.88229643       0.88229643
C        0.30744038      -1.60180643       1.93005730
C        1.10573535      -2.41832575       2.73102196
C        2.47801238      -2.50411580       2.48992180
C        3.05730848      -1.75962166       1.45069320
C        2.25155010      -0.95871939       0.63319955
C        4.52116317      -1.81684368       1.17456680
O        4.89917167      -1.74142696       0.01159222
N        5.31301661      -1.92051308       2.30175287
C        6.71379502      -2.06919128       2.36231150
C        7.54321613      -2.16977081       1.24639594
C        8.92267496      -2.33347431       1.40658097
C        9.47785141      -2.41635266       2.68431192
C        8.66189527      -2.33836376       3.81190332
N        9.24859695      -2.41399850       5.08856803
C        8.77106134      -3.30134895       5.90515066
C        9.30028045      -3.44753569       7.27564422
C        8.62450218      -4.31722467       8.13945124
C        9.08822072      -4.48670745       9.44327150
C       10.21937631      -3.80755216       9.89068371
C       10.89211114      -2.94064642       9.02584944
Cl      12.29065912      -2.12061827       9.61986205
C       10.43424225      -2.75071980       7.71722075
O       11.11100990      -1.88704199       6.89489968
C        7.28639359      -2.13738290       3.64022471
H       -0.76079497      -1.54127902       2.12192742
H        0.65480868      -2.99551273       3.53543877
H        3.07534913      -3.17667622       3.10005557
H        2.69773387      -0.40027327      -0.18701645
H        4.84638633      -1.83760930       3.19451760
H        7.14896982      -2.11869781       0.23556053
H        9.56361530      -2.39511653       0.53059877
H       10.55118327      -2.54198637       2.79977039
H        7.94615740      -3.97920650       5.61418638
H        7.74012305      -4.85434019       7.80468867
H       10.57944763      -3.94686846      10.90704814
H       10.62626355      -1.83204427       6.03996088
H        6.66267871      -2.03530000       4.52307103
C        8.38745938      -5.37276963      10.33625939
C        7.80057176      -6.11484670      11.08413675
Br       6.85162412      -7.31472256      12.29339118
