189
Properties=species:S:1:pos:R:3 pbc="F F F"
C        0.00000000       0.00000000       0.00000000
C       -1.03661225      -0.66351331     -14.84520619
O       -0.56087277       0.40863906     -15.65327776
C        0.33633252       1.26082079     -15.05871986
C        0.54983430       1.38774253     -13.68748629
C        1.48929902       2.31379285     -13.21185391
C        1.70199320       2.48008696     -11.76000535
N        1.15421852       1.67847620     -10.90619333
C        1.36987469       1.89467069      -9.53568379
C        0.26516582       1.84311841      -8.68173105
C        0.41736518       2.00435111      -7.30057321
C        1.68434131       2.19150448      -6.74230420
C        2.78831323       2.25416007      -7.59664967
C        2.63580849       2.09401154      -8.97948616
N        1.89527198       2.36419445      -5.36479811
C        1.35188222       1.51147621      -4.55510615
C        1.52416837       1.61300936      -3.09187686
C        0.73575612       0.80377933      -2.26895332
C        0.88462218       0.88462218      -0.88462218
C        1.82436325       1.75968285      -0.33771253
O        1.98594109       1.84323506       1.02223148
C        2.62325580       2.56789919      -1.16172048
O        3.51139580       3.37289783      -0.49303186
C        4.37501271       4.17410812      -1.29373584
C        2.46394010       2.49718518      -2.54517462
C        2.22456022       3.10688032     -14.09663795
C        2.00848497       2.98118622     -15.46911695
Br       3.02338320       4.06304509     -16.64894876
C        1.06092414       2.07218325     -15.94414867
O        0.82539814       1.95195104     -17.28976614
H       -1.64322745      -1.31548574     -15.48184764
H       -1.67975286      -0.29709398     -14.03834258
H       -0.20603057      -1.25893149     -14.45164528
H       -0.01100542       0.79775159     -12.96874438
H        2.34440381       3.32619979     -11.44527561
H       -0.72404313       1.67414328      -9.09937239
H       -0.46422723       1.98121756      -6.66632638
H        3.77746885       2.41996878      -7.17822837
H        3.51744167       2.11439056      -9.61279181
H        0.73468611       0.66899534      -4.91910934
H        0.00527366       0.12368023      -2.69891397
H        2.68659558       2.50970530       1.16220801
H        5.03397999       4.72914743      -0.61959548
H        3.80454348       4.90265402      -1.87857112
H        5.00558405       3.55262120      -1.93836767
H        3.05635707       3.10765609      -3.21952375
H        2.95797821       3.81623109     -13.72347103
H        0.11453963       1.28574083     -17.37266429
C      -13.84327526      -3.52485118       4.22304582
O      -14.80251268      -3.96508609       3.26655471
C      -14.29914696      -4.43605781       2.07933160
C      -13.01345684      -4.20538290       1.59377661
C      -12.63289710      -4.73400177       0.35195308
C      -11.28392525      -4.47024106      -0.18791919
N      -10.37729090      -3.88944313       0.52784598
C       -9.11790173      -3.64112198      -0.04120546
C       -8.55439153      -2.37543487       0.13981112
C       -7.28314402      -2.07721020      -0.36193527
C       -6.53678030      -3.05065451      -1.03071517
C       -7.10406676      -4.31330079      -1.22175543
C       -8.37726048      -4.61149112      -0.72055459
N       -5.25921293      -2.80557138      -1.55948023
C       -4.37769072      -2.25312460      -0.78764925
C       -3.00818574      -1.96286271      -1.25800614
C       -2.18158856      -1.16898959      -0.45791061
C       -0.88462218      -0.88462218      -0.88462218
C       -0.42279862      -1.40399809      -2.09496192
O        0.85352251      -1.13798216      -2.52248502
C       -1.24777623      -2.20816099      -2.89693825
O       -0.66368440      -2.65952029      -4.05412081
C       -1.45053939      -3.51862337      -4.87369391
C       -2.54921390      -2.48029983      -2.47678618
C      -13.52413170      -5.50012400      -0.40382279
C      -14.81191169      -5.72849655       0.08162010
Br     -15.99978722      -6.77673030      -0.95885953
C      -15.19869934      -5.18837956       1.30982286
O      -16.46742168      -5.38959153       1.78989789
H      -14.37967831      -3.29190458       5.14844844
H      -13.34310041      -2.60922176       3.89082642
H      -13.11833261      -4.31470565       4.44635503
H      -12.29723628      -3.60485198       2.14659771
H      -11.09572449      -4.78742575      -1.23272897
H       -9.11348305      -1.61515663       0.67916712
H       -6.88264102      -1.07695908      -0.22371662
H       -6.54333573      -5.07400581      -1.75832446
H       -8.77607355      -5.61211777      -0.85643272
H       -4.60717027      -1.97299195       0.25737142
H       -2.54510251      -0.76665714       0.48389180
H        0.94468808      -1.60040831      -3.37837263
H       -0.83926622      -3.81085946      -5.73259722
H       -2.33443674      -2.99700230      -5.25432957
H       -1.72803627      -4.43186800      -4.33666865
H       -3.22311100      -3.09266031      -3.06776559
H      -13.22133961      -5.91528736      -1.36105336
H      -16.50784815      -4.90092536       2.63582876
C        3.34428055       2.13071160      14.35864957
O        2.81289622       3.24536800      15.06857227
C        1.70069598       3.83536168      14.52120747
C        1.26564237       3.68480596      13.20589954
C        0.11705908       4.36134820      12.77065667
C       -0.33620901       4.23498290      11.37089360
N        0.21064950       3.38621868      10.56331886
C       -0.24215526       3.32232004       9.23575386
C        0.71406728       3.28647821       8.21760436
C        0.33111158       3.17671205       6.87668902
C       -1.01797808       3.07086160       6.52931031
C       -1.97538555       3.11768506       7.54605237
C       -1.59207331       3.22884802       8.88838487
N       -1.45954932       2.96410932       5.20060590
C       -0.90133867       2.07275913       4.44436678
C       -1.30556044       1.88741897       3.03607518
C       -0.51863001       1.07265976       2.21719900
C       -0.88462218       0.88462218       0.88462218
C       -2.03512322       1.49893073       0.38770469
O       -2.41031609       1.31593541      -0.91930683
C       -2.83190860       2.31132893       1.20963793
O       -3.93803695       2.84368448       0.59560406
C       -4.80003674       3.63547867       1.40734127
C       -2.45766983       2.51062745       2.53800262
C       -0.60606655       5.17926923      13.64274271
C       -0.16853991       5.33162382      14.95862440
Br      -1.17061234       6.44078965      16.12397505
C        0.98481996       4.67277042      15.38930558
O        1.43629082       4.82860258      16.67480356
H        4.14471028       1.69949857      14.96834616
H        3.78468875       2.44083694      13.40534755
H        2.58254703       1.35781990      14.21141036
H        1.80803090       3.06772404      12.49579742
H       -1.15763378       4.90656243      11.05168300
H        1.76869749       3.34366987       8.47450017
H        1.09808686       3.17396793       6.10743565
H       -3.02952133       3.05728312       7.28886156
H       -2.35874254       3.22874005       9.65714146
H       -0.09772182       1.40964522       4.81542375
H        0.37638498       0.59610020       2.60815262
H       -3.23056734       1.83489778      -1.03137226
H       -5.63988669       3.95794245       0.78489376
H       -4.28628114       4.53278743       1.76670004
H       -5.20742350       3.05043676       2.23871266
H       -3.04102987       3.13507589       3.20743116
H       -1.50061471       5.69387669      13.30318892
H        2.25789300       4.30133952      16.72949823
C       14.09086678      -2.91053561      -3.85632177
O       15.03220368      -3.35127885      -2.88243847
C       14.50597324      -3.87972607      -1.72982614
C       13.19751294      -3.70922898      -1.28167880
C       12.79411479      -4.29303460      -0.07220361
C       11.41947948      -4.09349348       0.42911256
N       10.51774605      -3.51893360      -0.29779161
C        9.23214685      -3.33282421       0.23525811
C        8.63147861      -2.08121375       0.07732293
C        7.33455985      -1.84332289       0.54440675
C        6.60040373      -2.86382680       1.15391946
C        7.20440259      -4.11262093       1.32209946
C        8.50324582      -4.35043121       0.85562916
N        5.29810950      -2.68016409       1.64599095
C        4.42432035      -2.13113736       0.86300687
C        3.03058613      -1.90340389       1.29506456
C        2.20423548      -1.11041147       0.49384181
C        0.88462218      -0.88462218       0.88462218
C        0.40078913      -1.46082684       2.06014266
O       -0.89759391      -1.25270410       2.45183448
C        1.22581580      -2.26421655       2.86284312
O        0.61927971      -2.77473741       3.98330837
C        1.40754316      -3.63489073       4.80042278
C        2.54925148      -2.47786908       2.47917935
C       13.68555055      -5.05460631       0.68792163
C       14.99601472      -5.22273757       0.24003585
Br      16.18398766      -6.26602385       1.28536553
C       15.40477857      -4.62771073      -0.95523326
O       16.69508581      -4.76953761      -1.39750810
H       14.64957567      -2.62780649      -4.75424771
H       13.54840007      -2.02424636      -3.51115069
H       13.40163135      -3.71601895      -4.13096707
H       12.47982842      -3.11422819      -1.83856605
H       11.20748759      -4.45283589       1.45555573
H        9.18163394      -1.28438932      -0.41655070
H        6.90447732      -0.85286195       0.42597745
H        6.65271782      -4.90982997       1.81311822
H        8.93173181      -5.34124272       0.97164950
H        4.67883459      -1.80741356      -0.16345735
H        2.58493360      -0.66371752      -0.42078327
H       -1.00129851      -1.74731849       3.28807289
H        0.77833466      -3.97704353       5.62734470
H        2.25957627      -3.09745727       5.22873508
H        1.73437011      -4.51915860       4.24304420
H        3.22379340      -3.08742657       3.07231695
H       13.36543159      -5.51261663       1.61963210
H       16.74686704      -4.25075890      -2.22468119
