134
Properties=species:S:1:pos:R:3 pbc="F F F"
C        1.79310452       1.79310452      -1.79310452
C        1.85949262       3.16491893      -1.54995053
C        2.67022023       3.98938696      -2.34307256
C        2.66991235       5.43601784      -2.04325282
H        1.79167855       5.81028247      -1.52442013
N        3.71186902       6.19096401      -2.42284261
N        3.46275889       7.56919945      -2.12730973
C        4.33567463       8.64468320      -2.27394353
C        5.63407979       8.47576572      -2.74381128
C        6.47397875       9.58066858      -2.86677704
C        5.99349119      10.83394009      -2.51855831
C        4.69027185      10.91995486      -2.06100752
N        3.85906413       9.86463031      -1.93173863
C        3.40428333       3.40125255      -3.39346223
O        4.19786301       4.18387154      -4.19823612
C        3.32644569       2.02562435      -3.63488281
C        2.52052657       1.21703400      -2.83178063
H        1.29023445       3.60494053      -0.73529520
H        2.56167125       7.84343710      -1.75885218
H        5.97988577       7.48174801      -3.00292795
H        7.48753461       9.45178602      -3.22936205
H        6.61352818      11.71738930      -2.59902075
H        4.25972015      11.87317420      -1.77383454
H        4.14164555       5.08376035      -3.78271579
H        2.46066012       0.14932610      -3.01562966
C        4.06031170       1.40113530      -4.70495482
C        4.67492449       0.87812573      -5.60114012
Br       5.66870138       0.03246348      -7.05019597
C       -1.79310452      -1.79310452      -1.79310452
C       -1.91967029      -1.50316162      -3.15153016
C       -2.71754262      -2.30627880      -3.97885833
C       -2.82491266      -1.92273810      -5.40153225
H       -2.62152147      -0.87920665      -5.62565302
N       -3.16693518      -2.84653564      -6.31220482
N       -3.31197746      -2.24454421      -7.60274639
C       -3.55657844      -2.87970078      -8.81802215
C       -3.68129158      -4.26212907      -8.91023614
C       -3.91846176      -4.85372416     -10.14923845
C       -4.02875056      -4.04616926     -11.27106977
C       -3.89432124      -2.67986929     -11.09704370
N       -3.66274506      -2.08437921      -9.90830879
C       -3.39329457      -3.40200613      -3.40369741
O       -4.19444973      -4.20088999      -4.18463095
C       -3.26646803      -3.68151620      -2.03896861
C       -2.46247862      -2.87691365      -1.22994893
H       -1.39122454      -0.65677411      -3.58247153
H       -3.22783137      -1.24090417      -7.69522499
H       -3.58515101      -4.86486483      -8.01454589
H       -4.01266594      -5.93111685     -10.22489989
H       -4.21237349      -4.46594921     -12.25161554
H       -3.97083531      -1.99844619     -11.93744738
H       -4.05765177      -3.84802203      -5.10244789
H       -2.36060567      -3.09342327      -0.17158694
C       -3.95098517      -4.78995759      -1.42545906
C       -4.52426827      -5.71827726      -0.91164481
Br      -5.45121856      -7.21929164      -0.08085062
C       -1.79310452       1.79310452       1.79310452
C       -2.18633133       1.33689238       3.05113837
C       -2.98840086       2.13565840       3.87862049
C       -3.38711492       1.57572603       5.18634207
H       -3.37596103       0.49166517       5.25875495
N       -3.74129588       2.40365996       6.18071980
N       -4.18586114       1.65593707       7.31746985
C       -4.53757114       2.14233214       8.57439809
C       -4.47656591       3.49836624       8.87872465
C       -4.83125821       3.93762634      10.15253982
C       -5.24304457       3.00775608      11.09518893
C       -5.27851663       1.67754515      10.71517245
N       -4.93828393       1.22822166       9.48892747
C       -3.39379380       3.40030009       3.40490421
O       -4.19187703       4.20213823       4.18595541
C       -3.00074892       3.84719655       2.13900737
C       -2.19600224       3.04333009       1.33000887
H       -1.86464135       0.36085340       3.40497542
H       -4.26317361       0.64968445       7.25110248
H       -4.14592776       4.19844028       8.12019370
H       -4.78143454       4.99340243      10.39384571
H       -5.52671296       3.30748898      12.09573629
H       -5.59200170       0.90535281      11.40937437
H       -4.26323373       3.70345544       5.04143253
H       -1.88779725       3.38906494       0.34875369
C       -3.40642544       5.13120726       1.62876912
C       -3.74617952       6.20656622       1.20144459
Br      -4.29553314       7.94533072       0.51049696
C        1.79310452      -1.79310452       1.79310452
C        1.79323353      -3.17525838       1.60587017
C        2.60265501      -4.00041913       2.39960560
C        2.53075452      -5.45673651       2.16169198
H        1.61679632      -5.81420843       1.69537639
N        3.55628984      -6.23913516       2.53025063
N        3.23898275      -7.61644520       2.30384010
C        4.07284131      -8.72113580       2.46032427
C        5.39580981      -8.58847483       2.86937215
C        6.19450727      -9.72209608       3.00482102
C        5.64907330     -10.96698600       2.72993028
C        4.32519536     -11.01618214       2.32985673
N        3.53288901      -9.93267870       2.18986536
C        3.40394757      -3.40169817       3.39335236
O        4.19844825      -4.18388056       4.19764187
C        3.39247049      -2.01532190       3.57916045
C        2.58677959      -1.20662153       2.77594007
H        1.17248986      -3.62352117       0.83445915
H        2.31266085      -7.86697380       1.98432588
H        5.79246415      -7.60030243       3.07179516
H        7.22693828      -9.62168176       3.32006264
H        6.23549822     -11.87193846       2.82250154
H        3.84441190     -11.96117309       2.10114389
H        4.08807668      -5.09673809       3.82330693
H        2.57826876      -0.13073840       2.91660871
C        4.19588085      -1.37949982       4.59102115
C        4.86873704      -0.84699882       5.43845448
Br       5.95668858       0.01401025       6.80868250
C       -0.00445707       0.01189536      -1.78238275
H       -0.66409135       0.67374010      -2.43557963
H        0.65740317      -0.63156657      -2.45157240
C       -0.90989263      -0.90692880      -0.91072765
C        0.90977584       0.90977584      -0.90977584
C       -0.00465871       1.77757030       0.00794375
H       -0.66225468       2.44313916      -0.64384735
H        0.64322798       2.43503045       0.67728295
C       -1.78241447       0.00034974      -0.00472694
H       -2.45427497      -0.65498947       0.64260836
H       -2.43311707       0.67328779      -0.65473579
C       -0.91132561       0.90220522       0.91563759
C       -0.01476271      -0.02253852       1.78660255
H       -0.67934791      -0.69751639       2.42135241
H        0.63392994       0.61504881       2.47327442
C        0.01484550      -1.77751727      -0.01636693
H        0.67870853      -2.42144646      -0.68295456
H       -0.62264859      -2.45592969       0.64226336
C        1.78714474       0.01002794       0.00389507
H        2.44202412       0.67113390       0.66197326
H        2.45385902      -0.65136977      -0.64189061
C        0.91606151      -0.90478549       0.90901405
