189
Properties=species:S:1:pos:R:3 pbc="F F F"
C        0.00000000       0.00000000       0.00000000
C        0.88167431       0.88167431      -0.88167431
C        0.55102628       1.06494390      -2.22265373
C        1.35521426       1.87437226      -3.02726272
C        2.48936086       2.50568302      -2.49144098
C        2.82436672       2.29395652      -1.14795717
C        2.01376246       1.49058668      -0.34082303
C        3.34995185       3.33116455      -3.36991243
C        3.01034233       4.61529654      -3.63337446
C        1.93129035       5.48263573      -3.10142369
N        1.82581849       6.61119230      -3.74879146
N        2.81435493       6.60924621      -4.71929858
C        2.87002974       7.69794078      -5.62897890
C        3.78655744       7.73545963      -6.68915524
C        3.80077401       8.80270867      -7.59463298
C        2.90074268       9.85378243      -7.45217173
C        1.98731823       9.83983504      -6.40300849
C        1.97298571       8.77106827      -5.50065880
C        3.62901856       5.46973475      -4.70075809
O        4.58923080       5.18126870      -5.39501826
C        1.05743362       5.18328585      -1.92687207
C        4.54429236       2.73009507      -3.97454189
C        4.68547040       1.44662210      -4.34572279
C        5.89066774       0.94117315      -5.02312857
C        6.30396562      -0.37716255      -4.79318879
C        7.42487389      -0.89642323      -5.44957721
C        8.13179312      -0.10097701      -6.34892495
Br       9.64711587      -0.80107320      -7.23532945
C        7.72428757       1.20480631      -6.60489585
C        6.60238099       1.71971981      -5.94991552
H       -0.32277608       0.58074226      -2.65144116
H        1.09794454       2.00171341      -4.07737129
H        3.71306114       2.75407398      -0.72130498
H        2.27591037       1.34174022       0.70363604
H        4.50463042       6.93752831      -6.85043226
H        4.51601092       8.80480812      -8.41343322
H        2.91052157      10.67994352      -8.15797182
H        1.28060026      10.65678441      -6.28444881
H        1.24406534       8.78638196      -4.69369169
H        0.52336922       6.09092212      -1.62722244
H        1.66010255       4.86118324      -1.07547255
H        0.31663276       4.42585063      -2.18787333
H        5.38021264       3.40983715      -4.13541459
H        3.89313072       0.72021399      -4.18804271
H        5.76129913      -1.01116472      -4.09551701
H        7.73443783      -1.91938044      -5.25346053
H        8.26261807       1.82940863      -7.31277252
H        6.28617385       2.73544946      -6.18349474
C       -0.88167431      -0.88167431      -0.88167431
C       -2.24667310      -0.97378339      -0.61816742
C       -3.05295905      -1.77684719      -1.42704299
C       -2.49659797      -2.48611073      -2.50377615
C       -1.11895784      -2.40401742      -2.74330515
C       -0.31388992      -1.59280568      -1.93847658
C       -3.36205091      -3.36100128      -3.32797663
C       -4.10441098      -2.82757583      -4.32702652
C       -4.16166282      -1.45871957      -4.89496738
N       -5.14761933      -1.30223332      -5.73594960
N       -5.79586283      -2.52337151      -5.82366539
C       -6.96970200      -2.60950632      -6.61774110
C       -7.73013159      -3.78465136      -6.69638937
C       -8.90310168      -3.83668906      -7.45832493
C       -9.33325426      -2.71452659      -8.15891598
C       -8.58984805      -1.54014227      -8.10017144
C       -7.41926830      -1.48938671      -7.33605778
C       -5.21021998      -3.53617858      -5.05311285
O       -5.51916123      -4.71011000      -4.93624654
C       -3.20083570      -0.34822300      -4.61853283
C       -3.43050820      -4.79486130      -3.02355982
C       -3.31611794      -5.35427224      -1.80742511
C       -3.47972941      -6.79882226      -1.57641779
C       -2.73907856      -7.41878372      -0.56212957
C       -2.89926346      -8.78275990      -0.29600451
C       -3.81097728      -9.53127323      -1.03749055
Br      -4.02727416     -11.37443055      -0.67966743
C       -4.56991846      -8.92813791      -2.03593336
C       -4.40983953      -7.56475650      -2.29742028
H       -2.69062628      -0.43202331       0.21324225
H       -4.11618957      -1.85438674      -1.20645293
H       -0.66549635      -2.96588400      -3.55705976
H        0.75238305      -1.52674931      -2.13964830
H       -7.44374671      -4.68572727      -6.16311702
H       -9.47983617      -4.75749849      -7.49691760
H      -10.24599713      -2.75527964      -8.74716015
H       -8.91875398      -0.65882945      -8.64425007
H       -6.86233527      -0.55574823      -7.30605548
H       -3.35232609       0.45634843      -5.34553611
H       -2.17235644      -0.69818957      -4.72621233
H       -3.37010301       0.06105513      -3.62130885
H       -3.59847076      -5.44769527      -3.87929834
H       -3.12532286      -4.75354517      -0.92251939
H       -2.02489881      -6.84743414       0.02668153
H       -2.31106759      -9.24785731       0.49040698
H       -5.29139504      -9.50112463      -2.61227955
H       -5.03150760      -7.10757601      -3.06603444
C       -0.88167431       0.88167431       0.88167431
C       -1.84792181       0.29475750       1.69594459
C       -2.65099341       1.10102605       2.50482978
C       -2.48654685       2.49562413       2.50431387
C       -1.52800250       3.07506358       1.66321433
C       -0.71834911       2.26651592       0.86030714
C       -3.37247480       3.33643100       3.34212302
C       -3.09464741       3.50805100       4.65631493
C       -1.93799946       3.09145028       5.48590003
N       -2.13353505       3.29135631       6.76091088
N       -3.38617032       3.86926810       6.88746130
C       -3.88687370       4.11739251       8.19268321
C       -5.17549500       4.62443421       8.41124311
C       -5.66122760       4.82898119       9.70790687
C       -4.86382593       4.53395611      10.80891479
C       -3.57935218       4.03637511      10.61443446
C       -3.09669778       3.83020794       9.31780707
C       -4.03382695       4.09899138       5.66669308
O       -5.11717129       4.61020989       5.43813658
C       -0.64254915       2.54361735       4.98142503
C       -4.56502698       3.94371890       2.74018344
C       -5.30684611       3.42201856       1.74895061
C       -6.53973661       4.05825717       1.25697569
C       -6.88706600       3.92638264      -0.09345678
C       -8.07034897       4.49004814      -0.58236924
C       -8.91826802       5.17979301       0.28168003
Br     -10.51656590       5.94285107      -0.37804485
C       -8.59936894       5.30404622       1.63057457
C       -7.41810901       4.73729744       2.11660987
H       -1.98777185      -0.78329706       1.70493254
H       -3.41291561       0.63605787       3.12805576
H       -1.40304462       4.15525324       1.63014226
H        0.03058047       2.72507112       0.21952390
H       -5.84128616       4.86343063       7.58787421
H       -6.66714747       5.21566754       9.85143726
H       -5.24351669       4.68986480      11.81505541
H       -2.94980653       3.80309516      11.46893180
H       -2.09032604       3.43568534       9.19812760
H        0.09635000       2.54846422       5.78939956
H       -0.25199517       3.16869043       4.17607275
H       -0.77062837       1.51298750       4.64674085
H       -4.86272677       4.90468167       3.15805593
H       -5.04336717       2.47816210       1.27985815
H       -6.23647504       3.38914566      -0.77996928
H       -8.31992027       4.38311333      -1.63451568
H       -9.25959702       5.83071641       2.31448580
H       -7.20010638       4.82489104       3.18012063
C        0.88167431      -0.88167431       0.88167431
C        0.34040241      -1.48145945       2.01676205
C        1.14590378      -2.29069034       2.82025512
C        2.49329162      -2.50527350       2.48791974
C        3.03157681      -1.87713818       1.35756543
C        2.22218425      -1.07426809       0.54871982
C        3.34077327      -3.33761263       3.37264292
C        3.30972524      -4.68691553       3.26237256
C        2.63714984      -5.58537296       2.29282697
N        2.70486642      -6.84219812       2.63873771
N        3.43234477      -6.89403085       3.81652410
C        3.58640495      -8.14993346       4.46061100
C        4.23801736      -8.27786172       5.69529323
C        4.34821342      -9.52109532       6.32880692
C        3.81210059     -10.65927861       5.73531764
C        3.16741696     -10.55582561       4.50691919
C        3.05605479      -9.31202451       3.87663349
C        3.89801568      -5.64737028       4.25412545
O        4.57975564      -5.36167477       5.22408736
C        1.97949399      -5.17164136       1.01645618
C        4.17787409      -2.68510054       4.38595470
C        3.89027756      -1.54740567       5.04013206
C        4.74800603      -1.00205387       6.10490957
C        4.83225915       0.38580827       6.27354098
C        5.61136831       0.93222531       7.29888488
C        6.30189330       0.09056958       8.16841733
Br       7.35584705       0.82774203       9.55326711
C        6.21431434      -1.29123647       8.02843893
C        5.43281053      -1.83414782       7.00505797
H       -0.70042926      -1.32246370       2.28737290
H        0.71927375      -2.74481283       3.71294267
H        4.07953589      -2.01094506       1.09795916
H        2.64647811      -0.60040742      -0.33287097
H        4.66669877      -7.42075759       6.20513463
H        4.85122731      -9.59307382       7.28995113
H        3.89523685     -11.62322638       6.22997368
H        2.74560988     -11.43987934       4.03634428
H        2.54235890      -9.26244143       2.91933865
H        1.78207349      -6.05665577       0.40278451
H        2.63764795      -4.51549596       0.44361444
H        1.02567656      -4.68302831       1.22165186
H        5.11258006      -3.19360427       4.61928004
H        2.98343272      -0.98677712       4.83117759
H        4.29744468       1.05584846       5.60405520
H        5.66995413       2.01154457       7.41010836
H        6.74041163      -1.95606399       8.70832360
H        5.35824272      -2.91806604       6.92880929
