129
Properties=species:S:1:pos:R:3 pbc="F F F"
C        0.00000000       0.00000000       0.00000000
C        0.87850787       0.87850787      -0.87850787
C        0.88206810       0.72320443      -2.25805948
C        1.70371223       1.54778261      -3.02500873
C        2.48582899       2.50405336      -2.38914040
N        2.50329252       2.66094749      -1.04697940
C        1.69690912       1.84880009      -0.32262313
N        3.34381859       3.29729060      -3.15655810
C        3.57724414       4.50393260      -2.74585493
C        4.47793096       5.44756199      -3.45908860
C        4.18910841       6.81519397      -3.30411816
O        3.12853459       7.21373807      -2.53386422
C        4.95624974       7.78265045      -3.94144916
C        6.02594882       7.39202773      -4.74208084
C        6.35153501       6.03747731      -4.90796852
C        7.45035819       5.69219159      -5.71388417
C        7.81615084       4.36027841      -5.88420537
C        7.10183427       3.35586644      -5.25258933
C        6.00648887       3.68878985      -4.44957981
C        5.58477507       5.03138602      -4.26065619
H        0.26429449      -0.02717083      -2.74222238
H        1.74203075       1.44999515      -4.10423538
H        1.73680666       2.01018628       0.75043972
H        3.08019948       4.90546181      -1.84262508
H        3.05761365       8.18274775      -2.55382071
H        4.73820737       8.84111850      -3.83347555
H        6.61461749       8.16368856      -5.23538815
H        8.02910202       6.46871827      -6.20895960
H        7.38050816       2.31196087      -5.36818855
H        5.48755497       2.86807275      -3.96115743
C        8.94610466       4.02658908      -6.71212795
C        9.89244098       3.74712426      -7.40551312
Br      11.42258677       3.29525329      -8.52665828
C       -0.87850787      -0.87850787      -0.87850787
C       -1.47245921      -0.36669371      -2.02417909
C       -2.27155997      -1.20586246      -2.79908114
C       -2.44241251      -2.52822861      -2.40838164
N       -1.88130411      -3.03956970      -1.29034561
C       -1.10910237      -2.20570969      -0.55352027
N       -3.28210444      -3.35426438      -3.16129848
C       -2.99339363      -4.61626734      -3.21737069
C       -3.80782676      -5.60582173      -3.97093307
C       -3.11930380      -6.73132396      -4.45779278
O       -1.77518091      -6.86944244      -4.23151353
C       -3.78007568      -7.70941807      -5.19085558
C       -5.14210083      -7.57355950      -5.44439705
C       -5.86358866      -6.47114420      -4.96224798
C       -7.24082857      -6.38512929      -5.23047608
C       -7.99310693      -5.31731221      -4.75021549
C       -7.39098136      -4.32628321      -3.99302548
C       -6.02132298      -4.40205754      -3.72147801
C       -5.20974677      -5.46208974      -4.20498076
H       -1.32895972       0.66851899      -2.31890531
H       -2.76085206      -0.84035871      -3.69505050
H       -0.67338232      -2.65632636       0.33315546
H       -2.08920357      -5.01736080      -2.72172200
H       -1.45604664      -7.68457045      -4.65356502
H       -3.25676306      -8.57940248      -5.57663588
H       -5.64282992      -8.34858839      -6.02227589
H       -7.73223670      -7.15999173      -5.81455147
H       -7.96645188      -3.49107036      -3.60313534
H       -5.59703068      -3.61044310      -3.10931136
C       -9.40319185      -5.24781209      -5.03381775
C      -10.58413797      -5.18960573      -5.27133465
Br     -12.49362797      -5.09549098      -5.65537938
C       -0.87850787       0.87850787       0.87850787
C       -0.86785252       2.25941051       0.73606899
C       -1.68671442       3.02662418       1.56316496
C       -2.49381940       2.38838100       2.49682235
N       -2.50795935       1.04653587       2.65672420
C       -1.70439824       0.32191137       1.84202273
N       -3.27827871       3.16278693       3.35660165
C       -4.40832538       2.66687000       3.75183629
C       -5.33203867       3.37791527       4.67462761
C       -6.69721925       3.06575042       4.54545087
O       -7.11153190       2.15532511       3.60927988
C       -7.64919823       3.68551468       5.34563643
C       -7.24502873       4.62622100       6.28880765
C       -5.89047620       4.95178697       6.45471767
C       -5.52900453       5.89648723       7.43094218
C       -4.19354311       6.22849351       7.63859800
C       -3.20059731       5.62335805       6.88633468
C       -3.54980376       4.68306012       5.91199466
C       -4.89917043       4.32581520       5.65183164
H       -0.23336908       2.74516150       0.00081547
H       -1.69850758       4.10837177       1.48938194
H       -1.74885614      -0.75158489       1.99928196
H       -4.75873872       1.68309879       3.38644886
H       -8.07971427       2.07652650       3.63794134
H       -8.70649658       3.45633427       5.24997058
H       -8.00496533       5.10325122       6.90547765
H       -6.29487666       6.37377823       8.03812501
H       -2.15280507       5.86502296       7.04282955
H       -2.73524161       4.22273387       5.35880966
C       -3.84291218       7.19712903       8.64478048
C       -3.54925877       8.00836128       9.48745831
Br      -3.07444605       9.32005521      10.84999708
C        0.87850787      -0.87850787       0.87850787
C        1.46592072      -2.02852110       0.36889019
C        2.26166261      -2.80565367       1.20918728
C        2.45043055      -2.40305710       2.52553510
N        1.87700389      -1.29320126       3.04101427
C        1.10837975      -0.55400014       2.20595245
N        3.21004692      -3.20914968       3.37847070
C        3.88654871      -2.62425357       4.31622939
C        4.72467304      -3.36208334       5.29782517
C        5.82516853      -2.66091031       5.82234169
O        6.07742338      -1.37452516       5.42418834
C        6.68493725      -3.26182537       6.73358672
C        6.45182150      -4.57465139       7.13358449
C        5.35586954      -5.29940880       6.64170250
C        5.15249026      -6.61727803       7.08666565
C        4.06427126      -7.35923575       6.63712761
C        3.16144752      -6.80173025       5.74711227
C        3.35538475      -5.49184650       5.29762728
C        4.46003542      -4.70284126       5.71394059
H        1.31142752      -2.33054792      -0.66262938
H        2.72895766      -3.71623061       0.85107301
H        0.67044777       0.33120671       2.65731216
H        3.89594744      -1.52191835       4.41042058
H        6.88225739      -1.05018351       5.86174121
H        7.54111470      -2.73152828       7.14015845
H        7.13709812      -5.02997783       7.84661826
H        5.84566777      -7.06736452       7.79374761
H        2.30181561      -7.36484799       5.39399398
H        2.61168158      -5.09179089       4.61331267
C        3.87174283      -8.70708480       7.10599406
C        3.71050027      -9.83590838       7.49866971
Br       3.44978468     -11.66112063       8.13359303
