150
Properties=species:S:1:pos:R:3 pbc="F F F"
C        1.78841189       1.78841189      -1.78841189
C        1.79197213       1.63310846      -3.16796350
C        2.61361625       2.45768663      -3.93491275
C        3.39573301       3.41395739      -3.29904443
N        3.41319655       3.57085152      -1.95688343
C        2.60681314       2.75870411      -1.23252715
N        4.25372261       4.20719463      -4.06646213
C        4.48714816       5.41383663      -3.65575895
C        5.38783498       6.35746602      -4.36899263
C        5.09901244       7.72509799      -4.21402218
O        4.03843861       8.12364209      -3.44376825
C        5.86615376       8.69255447      -4.85135318
C        6.93585284       8.30193175      -5.65198487
C        7.26143903       6.94738134      -5.81787254
C        8.36026221       6.60209561      -6.62378819
C        8.72605487       5.27018244      -6.79410940
C        8.01173830       4.26577046      -6.16249336
C        6.91639290       4.59869387      -5.35948384
C        6.49467909       5.94129004      -5.17056022
H        1.17419852       0.88273320      -3.65212641
H        2.65193477       2.35989918      -5.01413940
H        2.64671068       2.92009030      -0.15946430
H        3.99010350       5.81536584      -2.75252910
H        3.96751768       9.09265178      -3.46372474
H        5.64811140       9.75102253      -4.74337957
H        7.52452151       9.07359259      -6.14529218
H        8.93900605       7.37862229      -7.11886363
H        8.29041219       3.22186490      -6.27809257
H        6.39745899       3.77797677      -4.87106145
C        9.85600868       4.93649310      -7.62203198
C       10.80234500       4.65702828      -8.31541714
Br      12.33249080       4.20515731      -9.43656230
C       -1.78841189      -1.78841189      -1.78841189
C       -1.75735151      -1.66486740      -3.17082517
C       -2.58029395      -2.48818493      -3.93773675
C       -3.39832830      -3.41172208      -3.29868444
N       -3.44959680      -3.53724412      -1.95409058
C       -2.64123487      -2.72698804      -1.22982150
N       -4.25686535      -4.20290783      -4.06760619
C       -4.52718984      -5.39421697      -3.63533693
C       -5.43308343      -6.33350875      -4.34770144
C       -5.17938200      -7.70336359      -4.15538703
O       -4.14586547      -8.10783486      -3.35214863
C       -5.95405584      -8.66772789      -4.78827769
C       -6.99619167      -8.27166787      -5.62190992
C       -7.28669318      -6.91431186      -5.82568787
C       -8.35886281      -6.56303162      -6.66425159
C       -8.68997132      -5.22749842      -6.87287696
C       -7.96711550      -4.22514065      -6.24774597
C       -6.89807186      -4.56405364      -5.41244512
C       -6.51173572      -5.91109441      -5.18369922
H       -1.11172881      -0.93992848      -3.65740083
H       -2.59205601      -2.41443070      -5.01948664
H       -2.70897373      -2.86268987      -0.15460168
H       -4.05997143      -5.78592968      -2.71209732
H       -4.09683972      -9.07839763      -3.34865683
H       -5.76292310      -9.72806822      -4.65152218
H       -7.59121887      -9.04103855      -6.11114885
H       -8.94404255      -7.33752966      -7.15491975
H       -8.21901198      -3.17816645      -6.39319122
H       -6.37150403      -3.74419535      -4.93079783
C       -9.79302720      -4.88761466      -7.73389191
C      -10.71683650      -4.60296200      -8.45499193
Br     -12.21055800      -4.14270273      -9.62094968
C       -1.78841189       1.78841189       1.78841189
C       -2.46212206       2.87783305       1.25308898
C       -3.25458724       3.65741485       2.09421354
C       -3.35394984       3.31713377       3.43765122
N       -2.69604927       2.26736061       3.97752161
C       -1.93240122       1.52450276       3.14114043
N       -4.11130231       4.12812067       4.28795639
C       -4.70657554       3.56076145       5.28940674
C       -5.53197589       4.30658918       6.27572856
C       -6.56491808       3.57938232       6.89383222
O       -6.76757632       2.26223273       6.57603991
C       -7.40812685       4.18378116       7.81815341
C       -7.22588381       5.52642070       8.13746494
C       -6.19707550       6.27867132       7.55094609
C       -6.04246231       7.62724174       7.91644197
C       -5.02012912       8.39852932       7.37168826
C       -4.13523619       7.84076153       6.46400440
C       -4.28109403       6.50039337       6.09308321
C       -5.31897811       5.67956072       6.60799052
H       -2.37698274       3.13140066       0.20067473
H       -3.78788796       4.52234706       1.71573834
H       -1.42498661       0.68838976       3.61288893
H       -4.65181148       2.46605346       5.44013351
H       -7.53039338       1.92123599       7.07226482
H       -8.21264344       3.63310738       8.29676268
H       -7.89736724       5.98387472       8.86216432
H       -6.72184676       8.07874647       8.63589874
H       -3.32631151       8.42721875       6.03683939
H       -3.55285319       6.10258699       5.39105702
C       -4.87672978       9.77772932       7.76007466
C       -4.75663284      10.93280932       8.08534827
Br      -4.56244624      12.80047598       8.61128819
C        1.78841189      -1.78841189       1.78841189
C        2.39817981      -2.92341353       1.27145074
C        3.19307138      -3.70115502       2.11198923
C        3.35868374      -3.31399046       3.43606063
N        2.76336663      -2.21903102       3.95853384
C        1.99603316      -1.47892163       3.12308962
N        4.11768050      -4.12134281       4.28835605
C        4.77353646      -3.54022718       5.24298010
C        5.60837407      -4.28002505       6.22589450
C        6.69210701      -3.57135262       6.77467298
O        6.93217192      -2.27640860       6.39726843
C        7.54766761      -4.17301444       7.68937936
C        7.32707293      -5.49416295       8.06853358
C        6.24776564      -6.22679807       7.55212920
C        6.05636765      -7.55320126       7.97657712
C        4.98445792      -8.30350533       7.50238345
C        4.08615545      -7.74611096       6.60773571
C        4.26828227      -6.42775695       6.17853139
C        5.35642676      -5.62974208       6.62036052
H        2.26165016      -3.21343803       0.23396993
H        3.67745799      -4.60043355       1.74808182
H        1.54009883      -0.60588209       3.58028437
H        4.76668940      -2.43924693       5.35206210
H        7.72658456      -1.94728126       6.85002836
H        8.39103072      -3.63685973       8.11462305
H        8.00885226      -5.94990853       8.78464548
H        6.74605502      -8.00352101       8.68691594
H        3.23906784      -8.31585311       6.23544871
H        3.52845310      -6.02844582       5.48959829
C        4.80399573      -9.66006224       7.95047579
C        4.65285865     -10.79617865       8.32575313
Br       4.40848276     -12.63318280       8.93254485
C       -0.00445707       0.01189536      -1.78238275
H       -0.66409135       0.67374010      -2.43557963
H        0.65740317      -0.63156657      -2.45157240
C       -0.90989263      -0.90692880      -0.91072765
C        0.90977584       0.90977584      -0.90977584
C       -0.00465871       1.77757030       0.00794375
H       -0.66225468       2.44313916      -0.64384735
H        0.64322798       2.43503045       0.67728295
C       -1.78241447       0.00034974      -0.00472694
H       -2.45427497      -0.65498947       0.64260836
H       -2.43311707       0.67328779      -0.65473579
C       -0.91132561       0.90220522       0.91563759
C       -0.01476271      -0.02253852       1.78660255
H       -0.67934791      -0.69751639       2.42135241
H        0.63392994       0.61504881       2.47327442
C        0.01484550      -1.77751727      -0.01636693
H        0.67870853      -2.42144646      -0.68295456
H       -0.62264859      -2.45592969       0.64226336
C        1.78714474       0.01002794       0.00389507
H        2.44202412       0.67113390       0.66197326
H        2.45385902      -0.65136977      -0.64189061
C        0.91606151      -0.90478549       0.90901405
