142
Properties=species:S:1:pos:R:3 pbc="F F F"
C        1.78841189       1.78841189      -1.78841189
C        1.79197213       1.63310846      -3.16796350
C        2.61361625       2.45768663      -3.93491275
C        3.39573301       3.41395739      -3.29904443
N        3.41319655       3.57085152      -1.95688343
C        2.60681314       2.75870411      -1.23252715
N        4.25372261       4.20719463      -4.06646213
C        4.48714816       5.41383663      -3.65575895
C        5.38783498       6.35746602      -4.36899263
C        5.09901244       7.72509799      -4.21402218
O        4.03843861       8.12364209      -3.44376825
C        5.86615376       8.69255447      -4.85135318
C        6.93585284       8.30193175      -5.65198487
C        7.26143903       6.94738134      -5.81787254
C        8.36026221       6.60209561      -6.62378819
C        8.72605487       5.27018244      -6.79410940
Br      10.20899701       4.83225128      -7.88066822
C        8.01173830       4.26577046      -6.16249336
C        6.91639290       4.59869387      -5.35948384
C        6.49467909       5.94129004      -5.17056022
H        1.17419852       0.88273320      -3.65212641
H        2.65193477       2.35989918      -5.01413940
H        2.64671068       2.92009030      -0.15946430
H        3.99010350       5.81536584      -2.75252910
H        3.96751768       9.09265178      -3.46372474
H        5.64811140       9.75102253      -4.74337957
H        7.52452151       9.07359259      -6.14529218
H        8.93900605       7.37862229      -7.11886363
H        8.29041219       3.22186490      -6.27809257
H        6.39745899       3.77797677      -4.87106145
C       -1.78841189      -1.78841189      -1.78841189
C       -1.75521056      -1.66687974      -3.17095378
C       -2.57823319      -2.49011750      -3.93786494
C       -3.39848902      -3.41158020      -3.29866561
N       -3.45184747      -3.53511501      -1.95396902
C       -2.64336331      -2.72497865      -1.22970245
N       -4.25705757      -4.20263852      -4.06768327
C       -4.52969189      -5.39294562      -3.63410623
C       -5.43590813      -6.33196184      -4.34642366
C       -5.18443064      -7.70190077      -4.15180120
O       -4.15263381      -8.10669695      -3.34651819
C       -5.95957606      -8.66606286      -4.78442250
C       -6.99996094      -8.26970893      -5.62009958
C       -7.28823993      -6.91223281      -5.82622017
C       -8.35871529      -6.56062289      -6.66680783
C       -8.68762536      -5.22491871      -6.87780263
Br     -10.13302265      -4.77840967      -8.01048420
C       -7.96423274      -4.22270062      -6.25306876
C       -6.89686112      -4.56194350      -5.41576599
C       -6.51276852      -5.90920510      -5.18455573
H       -1.10786550      -0.94355272      -3.65763990
H       -2.58835250      -2.41788662      -5.01973423
H       -2.71282366      -2.85905329      -0.15438834
H       -4.06434446      -5.78400743      -2.70964656
H       -4.10499478      -9.07732248      -3.34157694
H       -5.77014756      -9.72647806      -4.64588788
H       -7.59538672      -9.03892867      -6.10909089
H       -8.94429889      -7.33498601      -7.15720707
H       -8.21443154      -3.17557750      -6.40036061
H       -6.36981193      -3.74214975      -4.93453553
C       -1.78841189       1.78841189       1.78841189
C       -2.56137234       2.79890141       1.23277033
C       -3.35008913       3.58164509       2.07448142
C       -3.34656475       3.32262922       3.43954086
N       -2.59161540       2.35097541       3.99834069
C       -1.83366827       1.60338546       3.16099068
N       -4.10176118       4.13935424       4.28626396
C       -4.59826357       3.60245966       5.35602051
C       -5.40890332       4.35888667       6.34650364
C       -6.35420118       3.61193946       7.07199198
O       -6.49093409       2.26736735       6.84754752
C       -7.17726130       4.22244760       8.01035251
C       -7.06240380       5.59128153       8.23608413
C       -6.12092738       6.36494753       7.54081800
C       -6.03119679       7.74098277       7.81396645
C       -5.09487802       8.53589434       7.15957433
Br      -4.99254203      10.38287155       7.54650294
C       -4.23227714       7.97540659       6.23231839
C       -4.31413682       6.60772116       5.95271263
C       -5.26457141       5.76061218       6.58134575
H       -2.55602876       2.98929691       0.16373245
H       -3.95939759       4.38698211       1.67959366
H       -1.24638358       0.83116628       3.64871543
H       -4.46463674       2.52490735       5.56845436
H       -7.19917529       1.91357920       7.41113970
H       -7.91468926       3.65615871       8.57166553
H       -7.71700005       6.05296502       8.97344120
H       -6.69359815       8.19592978       8.54696403
H       -3.48965498       8.58089604       5.71981863
H       -3.60545448       6.21031636       5.23072637
C        1.78841189      -1.78841189       1.78841189
C        2.54890982      -2.80938785       1.23474641
C        3.33809603      -3.59171303       2.07640657
C        3.34749469      -3.32189583       3.43934431
N        2.60472492      -2.33987167       3.99633490
C        1.84606332      -1.59290868       3.15907241
N        4.10293398      -4.13789354       4.28655184
C        4.61217161      -3.59653299       5.34803914
C        5.42467268      -4.35154192       6.33807903
C        6.38159497      -3.60643867       7.05009898
O        6.52715873      -2.26481463       6.81387559
C        7.20725373      -4.21604885       7.98675883
C        7.08338249      -5.58209729       8.22428968
C        6.13031100      -6.35370921       7.54267271
C        6.03188593      -7.72678391       7.82747617
C        5.08412948      -8.51935808       7.18685913
Br       4.97028394     -10.36234533       7.58928725
C        4.21862556      -7.95936234       6.26201422
C        4.30906276      -6.59462526       5.97088259
C        5.27114150      -5.75017303       6.58521482
H        2.53354456      -3.00817857       0.16733499
H        3.93785455      -4.40497497       1.68314383
H        1.26880506      -0.81220417       3.64525607
H        4.48876274      -2.51630482       5.55293088
H        7.24264189      -1.91223668       7.36901562
H        7.95358327      -3.65123410       8.53769613
H        7.74016290      -6.04313879       8.96010458
H        6.69648948      -8.18118599       8.55881650
H        3.46718119      -8.56294799       5.76024048
H        3.59781406      -6.19730601       5.25137714
C       -0.00445707       0.01189536      -1.78238275
H       -0.66409135       0.67374010      -2.43557963
H        0.65740317      -0.63156657      -2.45157240
C       -0.90989263      -0.90692880      -0.91072765
C        0.90977584       0.90977584      -0.90977584
C       -0.00465871       1.77757030       0.00794375
H       -0.66225468       2.44313916      -0.64384735
H        0.64322798       2.43503045       0.67728295
C       -1.78241447       0.00034974      -0.00472694
H       -2.45427497      -0.65498947       0.64260836
H       -2.43311707       0.67328779      -0.65473579
C       -0.91132561       0.90220522       0.91563759
C       -0.01476271      -0.02253852       1.78660255
H       -0.67934791      -0.69751639       2.42135241
H        0.63392994       0.61504881       2.47327442
C        0.01484550      -1.77751727      -0.01636693
H        0.67870853      -2.42144646      -0.68295456
H       -0.62264859      -2.45592969       0.64226336
C        1.78714474       0.01002794       0.00389507
H        2.44202412       0.67113390       0.66197326
H        2.45385902      -0.65136977      -0.64189061
C        0.91606151      -0.90478549       0.90901405
