138
Properties=species:S:1:pos:R:3 pbc="F F F"
C        1.79239019       1.79239019      -1.79239019
C        1.20827396       2.78671932      -2.57605957
C        2.01772779       3.59290514      -3.38577139
C        1.40508448       4.62584121      -4.24639417
N        0.11837859       4.75534756      -4.34464079
N       -0.28739910       5.71143160      -5.22496914
C       -1.60675721       5.90724099      -5.57510740
O       -1.94520434       6.81364349      -6.33276006
C       -2.63944411       5.04217294      -4.97109223
C       -3.53824644       5.67229074      -4.09634417
C       -4.55799925       4.94240520      -3.48711302
C       -4.68842587       3.58040570      -3.75230075
C       -3.81254467       2.95271232      -4.64154500
C       -2.79198690       3.68090916      -5.26696937
I       -1.63381830       2.65821768      -6.68691479
C        3.40286012       3.40060374      -3.40408727
O        4.18292487       4.19257130      -4.20477513
C        3.97276547       2.39561204      -2.61489236
Br       5.84625490       2.09859150      -2.63085698
C        3.17140784       1.58898540      -1.80721924
H        0.12953942       2.93245123      -2.56334767
H        2.09126435       5.26872728      -4.82645936
H        0.38980404       6.31785153      -5.67572543
H       -3.44305995       6.73755699      -3.89545512
H       -5.25200933       5.43630086      -2.81136062
H       -5.48345690       3.00929219      -3.27922845
H       -3.95043440       1.89375968      -4.84976922
H        5.10966258       3.90347983      -4.10338996
H        3.61554382       0.80679383      -1.19700316
C       -1.79239019      -1.79239019      -1.79239019
C       -3.08209660      -1.37293664      -2.11601962
C       -3.89024674      -2.18348552      -2.92267206
C       -5.27056011      -1.76449312      -3.24226663
N       -5.79659275      -0.69883701      -2.72293718
N       -7.09589095      -0.48438944      -3.06872125
C       -7.87247127       0.51120883      -2.51432874
O       -9.02632042       0.71171296      -2.88659175
C       -7.27504782       1.39469306      -1.49346629
C       -7.10684125       2.73853381      -1.86208103
C       -6.56403409       3.65399685      -0.96148173
C       -6.19105900       3.23307632       0.31370208
C       -6.37931661       1.90233047       0.69527349
C       -6.93459837       0.97816692      -0.19946019
I       -7.29747691      -0.95240938       0.53857212
C       -3.40283453      -3.40410370      -3.40061290
O       -4.20562353      -4.19020103      -4.18444674
C       -2.10780686      -3.81232397      -3.06313903
Br      -1.42404608      -5.47021901      -3.68143830
C       -1.29873559      -3.00960354      -2.25927335
H       -3.46111154      -0.42424938      -1.73997741
H       -5.84815662      -2.41427630      -3.92401807
H       -7.55141970      -1.07747593      -3.75448537
H       -7.40603239       3.07040787      -2.85432764
H       -6.43730605       4.69398332      -1.25232940
H       -5.76849337       3.94529702       1.01813261
H       -6.10191693       1.60453127       1.70429116
H       -3.71022119      -5.00192752      -4.40438366
H       -0.29398643      -3.32967131      -1.99568307
C       -1.79239019       1.79239019       1.79239019
C       -2.09040877       1.38770287       3.09294122
C       -2.90087237       2.19605437       3.89947757
C       -3.25130459       1.75928219       5.26673309
N       -2.90086343       0.59625165       5.72125186
N       -3.35347541       0.32021125       6.97531498
C       -3.20815711      -0.91124331       7.57867739
O       -3.58137088      -1.11229562       8.73212394
C       -2.52929837      -1.99191360       6.83643629
C       -1.29094392      -2.40923833       7.34868289
C       -0.57944436      -3.43372894       6.72580355
C       -1.10344981      -4.05015106       5.59098184
C       -2.34723329      -3.65652170       5.09100106
C       -3.07425239      -2.63566044       5.71729968
I       -4.98853693      -2.23430701       4.95708425
C       -3.40452021       3.40185090       3.40118002
O       -4.20069942       4.18083037       4.19874151
C       -3.09942370       3.79140364       2.09244253
Br      -3.78128981       5.41264850       1.38176507
C       -2.29351539       2.98986091       1.28423618
H       -1.70054872       0.44698243       3.47780717
H       -3.85032275       2.45676616       5.87936208
H       -3.83956684       1.02842126       7.51539290
H       -0.88491453      -1.93492077       8.23995840
H        0.37877927      -3.75354941       7.12798082
H       -0.55097969      -4.84998623       5.10407027
H       -2.74489550      -4.16975948       4.21795848
H       -4.47130758       4.96334179       3.68188300
H       -2.05992941       3.29262936       0.26678203
C        1.79239019      -1.79239019       1.79239019
C        2.90583866      -2.42464493       1.24056926
C        3.71207782      -3.23464348       2.04968301
C        4.87379217      -3.93700206       1.46652563
N        5.12548927      -3.89803051       0.19484716
N        6.19463847      -4.64680244      -0.19243928
C        6.53940586      -4.84850869      -1.51232336
O        7.54144056      -5.48659678      -1.82683814
C        5.71450270      -4.22596020      -2.56664185
C        6.33371643      -3.21581238      -3.31914034
C        5.64117516      -2.57739553      -4.34705172
C        4.32824724      -2.94805671      -4.63202336
C        3.71487101      -3.97013559      -3.90329395
C        4.40723910      -4.62483290      -2.87618037
I        3.42884610      -6.23534938      -1.95288130
C        3.40074242      -3.40427616       3.40253256
O        4.19460904      -4.20373296       4.18192930
C        2.27744384      -2.76610693       3.93971910
Br       1.81888589      -2.99007900       5.76673849
C        1.47024971      -1.95895439       3.13840838
H        3.14445932      -2.29443126       0.18644775
H        5.50675129      -4.52181429       2.15788541
H        6.77968739      -5.10577845       0.49791515
H        7.36183887      -2.93170991      -3.10359662
H        6.12655693      -1.79644703      -4.92735181
H        3.78645120      -2.45239706      -5.43378453
H        2.69749557      -4.25680572      -4.16120679
H        3.81623342      -4.21875764       5.08154131
H        0.59631851      -1.46630359       3.55671871
C       -0.00445707       0.01189536      -1.78238275
H       -0.66409135       0.67374010      -2.43557963
H        0.65740317      -0.63156657      -2.45157240
C       -0.90989263      -0.90692880      -0.91072765
C        0.90977584       0.90977584      -0.90977584
C       -0.00465871       1.77757030       0.00794375
H       -0.66225468       2.44313916      -0.64384735
H        0.64322798       2.43503045       0.67728295
C       -1.78241447       0.00034974      -0.00472694
H       -2.45427497      -0.65498947       0.64260836
H       -2.43311707       0.67328779      -0.65473579
C       -0.91132561       0.90220522       0.91563759
C       -0.01476271      -0.02253852       1.78660255
H       -0.67934791      -0.69751639       2.42135241
H        0.63392994       0.61504881       2.47327442
C        0.01484550      -1.77751727      -0.01636693
H        0.67870853      -2.42144646      -0.68295456
H       -0.62264859      -2.45592969       0.64226336
C        1.78714474       0.01002794       0.00389507
H        2.44202412       0.67113390       0.66197326
H        2.45385902      -0.65136977      -0.64189061
C        0.91606151      -0.90478549       0.90901405
