146
Properties=species:S:1:pos:R:3 pbc="F F F"
C        1.79239019       1.79239019      -1.79239019
C        1.20827396       2.78671932      -2.57605957
C        2.01772779       3.59290514      -3.38577139
C        1.40508448       4.62584121      -4.24639417
N        0.11837859       4.75534756      -4.34464079
N       -0.28739910       5.71143160      -5.22496914
C       -1.60675721       5.90724099      -5.57510740
O       -1.94520434       6.81364349      -6.33276006
C       -2.63944411       5.04217294      -4.97109223
C       -3.53824644       5.67229074      -4.09634417
C       -4.55799925       4.94240520      -3.48711302
C       -4.68842587       3.58040570      -3.75230075
C       -3.81254467       2.95271232      -4.64154500
C       -2.79198690       3.68090916      -5.26696937
I       -1.63381830       2.65821768      -6.68691479
C        3.40286012       3.40060374      -3.40408727
O        4.18292487       4.19257130      -4.20477513
C        3.97276547       2.39561204      -2.61489236
C        3.17140784       1.58898540      -1.80721924
H        0.12953942       2.93245123      -2.56334767
H        2.09126435       5.26872728      -4.82645936
H        0.38980404       6.31785153      -5.67572543
H       -3.44305995       6.73755699      -3.89545512
H       -5.25200933       5.43630086      -2.81136062
H       -5.48345690       3.00929219      -3.27922845
H       -3.95043440       1.89375968      -4.84976922
H        5.10966258       3.90347983      -4.10338996
H        3.61554382       0.80679383      -1.19700316
C        5.39495241       2.17014040      -2.62701129
C        6.58603396       1.98130790      -2.63716089
Br       8.51191210       1.67598172      -2.65357193
C       -1.79239019      -1.79239019      -1.79239019
C       -1.24324021      -2.91227445      -2.41553820
C       -2.05233340      -3.71851854      -3.22555238
C       -1.47173038      -4.88722191      -3.91836757
N       -0.20168075      -5.14562540      -3.87106078
N        0.18381700      -6.22095362      -4.61186502
C        1.50287210      -6.57400546      -4.80445782
O        1.81536503      -7.58121852      -5.43534571
C        2.55828606      -5.75146037      -4.18064674
C        3.30186782      -6.36922197      -3.16303433
C        4.33006403      -5.67880405      -2.52277896
C        4.62423755      -4.36949787      -2.89902027
C        3.90445717      -3.75776843      -3.92840139
C        2.87714837      -4.44810669      -4.58493332
I        1.96800890      -3.47353449      -6.20578858
C       -3.40251325      -3.40075202      -3.40428586
O       -4.18187998      -4.19472809      -4.20366324
C       -3.93700756      -2.27106527      -2.77519704
C       -3.13569643      -1.46383932      -1.96807673
H       -0.19116646      -3.15591701      -2.27825486
H       -2.16335068      -5.51959919      -4.50350111
H       -0.50722106      -6.80473837      -5.07142157
H        3.07915163      -7.39458347      -2.87452031
H        4.90343411      -6.16305501      -1.73603123
H        5.42624227      -3.82937066      -2.40193535
H        4.16949634      -2.74339846      -4.21919239
H       -5.07931084      -3.81154549      -4.22567604
H       -3.55189121      -0.58495712      -1.48249248
C       -5.32104439      -1.91635532      -2.95470437
C       -6.48017525      -1.61928574      -3.10504176
Br      -8.35439180      -1.13894935      -3.34812461
C       -1.79239019       1.79239019       1.79239019
C       -2.89604011       1.23671281       2.43829993
C       -3.70493196       2.04687059       3.24460176
C       -4.89673361       1.47555478       3.90503148
N       -5.27403325       0.25331015       3.69102353
N       -6.42503423      -0.10176159       4.32572900
C       -7.06415380      -1.30579642       4.11723380
O       -8.07327467      -1.61752227       4.74544680
C       -6.47967315      -2.26549095       3.15963885
C       -5.98116340      -3.45789591       3.70712099
C       -5.42257285      -4.43308782       2.88203394
C       -5.36354338      -4.22455813       1.50529535
C       -5.88089969      -3.05080223       0.95161519
C       -6.45428353      -2.07051771       1.77212581
I       -7.32247013      -0.42045365       0.80929769
C       -3.40346767       3.40360514       3.40047832
O       -4.20604305       4.18642942       4.18779883
C       -2.29472557       3.94652074       2.74202356
C       -1.48607350       3.14463621       1.93690278
H       -3.13129708       0.18126744       2.31277381
H       -5.47151855       2.14401873       4.57091371
H       -6.86985646       0.53340332       4.98012122
H       -6.03486026      -3.62586038       4.78095228
H       -5.03916355      -5.35532114       3.31180973
H       -4.92934351      -4.98397227       0.85969249
H       -5.84408916      -2.92279060      -0.12820405
H       -3.85688980       5.09754259       4.16209998
H       -0.62683427       3.56872891       1.42377763
C       -1.97193137       5.34339005       2.87678267
C       -1.70159122       6.51326810       2.98964343
Br      -1.26447406       8.40486197       3.17212973
C        1.79239019      -1.79239019       1.79239019
C        3.00167610      -1.29401087       2.27536589
C        3.81019121      -2.10439375       3.08181936
C        5.10970215      -1.59807555       3.56954217
N        5.57371211      -0.44478859       3.19986624
N        6.81043288      -0.15094469       3.68762407
C        7.53271746       0.95842538       3.30129910
O        8.62425939       1.22302846       3.79996828
C        6.94495827       1.88050585       2.30936864
C        6.61530303       3.16211988       2.77720532
C        6.06796180       4.10906371       1.91262088
C        5.85169138       3.78250885       0.57509807
C        6.20109895       2.51690461       0.09751831
C        6.76216902       1.56300644       0.95672905
I        7.37435656      -0.24724425       0.08971336
C        3.40315389      -3.40387726       3.40051998
O        4.20599859      -4.18828043       4.18599228
C        2.18872631      -3.89024776       2.90429580
C        1.37981111      -3.08797732       2.09982406
H        3.31862495      -0.28356731       2.02314606
H        5.68509832      -2.25733664       4.24401603
H        7.25896293      -0.76517243       4.35924564
H        6.79205989       3.42132111       3.81921338
H        5.81576733       5.10065667       2.28054149
H        5.42593398       4.51956366      -0.10130658
H        6.04412199       2.29503550      -0.95599198
H        3.77417585      -5.05808885       4.28426767
H        0.43807604      -3.46847834       1.71278643
C        1.75475911      -5.22927489       3.20807010
C        1.39131157      -6.35071010       3.46248107
Br       0.80364765      -8.16397600       3.87384210
C       -0.00445707       0.01189536      -1.78238275
H       -0.66409135       0.67374010      -2.43557963
H        0.65740317      -0.63156657      -2.45157240
C       -0.90989263      -0.90692880      -0.91072765
C        0.90977584       0.90977584      -0.90977584
C       -0.00465871       1.77757030       0.00794375
H       -0.66225468       2.44313916      -0.64384735
H        0.64322798       2.43503045       0.67728295
C       -1.78241447       0.00034974      -0.00472694
H       -2.45427497      -0.65498947       0.64260836
H       -2.43311707       0.67328779      -0.65473579
C       -0.91132561       0.90220522       0.91563759
C       -0.01476271      -0.02253852       1.78660255
H       -0.67934791      -0.69751639       2.42135241
H        0.63392994       0.61504881       2.47327442
C        0.01484550      -1.77751727      -0.01636693
H        0.67870853      -2.42144646      -0.68295456
H       -0.62264859      -2.45592969       0.64226336
C        1.78714474       0.01002794       0.00389507
H        2.44202412       0.67113390       0.66197326
H        2.45385902      -0.65136977      -0.64189061
C        0.91606151      -0.90478549       0.90901405
