130
Properties=species:S:1:pos:R:3 pbc="F F F"
C        1.79913290       1.79913290      -1.79913290
C        2.59208758       2.76331640      -1.16799366
C        3.41792480       3.58876308      -1.92786298
C        3.44740145       3.44931850      -3.31307020
C        2.64801061       2.49033472      -3.94431590
C        1.81308630       1.65336608      -3.19874577
N        1.00696654       0.65112480      -3.78968501
C        0.81075117       0.41123338      -5.13365570
O        1.18471066       1.10685968      -6.07151604
C       -0.01183672      -0.78177021      -5.44234112
C       -1.13314409      -0.57881216      -6.26034421
C       -1.94553740      -1.65462825      -6.62318749
C       -1.63538185      -2.93826634      -6.17964891
C       -0.51255689      -3.14902065      -5.37630546
C        0.30499516      -2.07429256      -5.00631474
H        2.57439329       2.87714292      -0.08727215
H        4.04001932       4.33663233      -1.44287541
H        4.09595331       4.08500934      -3.91117210
H        2.71650885       2.41059342      -5.02496538
H        0.52402626       0.04771457      -3.13144794
H       -1.36996921       0.42036331      -6.62292350
H       -2.81241830      -1.49076176      -7.25990503
H       -2.25973569      -3.77904389      -6.47207585
H       -0.27485902      -4.16244907      -5.05760487
C        1.47204501      -2.37978854      -4.22001529
C        2.44944927      -2.63564142      -3.56148949
Br       4.02982929      -3.04933389      -2.49670897
C       -1.79913290      -1.79913290      -1.79913290
C       -1.83342672      -3.16950883      -1.52046209
C       -2.62668249      -4.01533522      -2.29253315
C       -3.38022055      -3.49030829      -3.33926131
C       -3.33915211      -2.12093174      -3.62257737
C       -2.54915182      -1.25684213      -2.85920421
N       -2.49595364       0.13859234      -3.09041504
C       -3.07668498       0.84437893      -4.12333420
O       -3.63116601       0.38277433      -5.11469471
C       -2.92891461       2.31601143      -4.03583100
C       -2.36132688       2.95884321      -5.14590429
C       -2.21260993       4.34692496      -5.15733688
C       -2.63974704       5.09908678      -4.06534046
C       -3.21823415       4.46634660      -2.96284036
C       -3.36793230       3.07439098      -2.94347602
H       -1.24828282      -3.58584493      -0.70468062
H       -2.66125725      -5.08035475      -2.07791506
H       -4.00772220      -4.14394528      -3.94046727
H       -3.95502606      -1.75748301      -4.43955858
H       -1.96319829       0.66540625      -2.40539671
H       -2.04117185       2.37642117      -6.00856693
H       -1.77380820       4.83957498      -6.02249175
H       -2.53648032       6.18140293      -4.07821889
H       -3.56523690       5.07341761      -2.12847749
C       -4.01994703       2.50191384      -1.79423857
C       -4.56600936       2.02246423      -0.83175221
Br      -5.44894597       1.24723476       0.72450684
C       -1.79913290       1.79913290       1.79913290
C       -3.08786094       1.34180071       2.09373598
C       -3.92903559       2.10704698       2.89846829
C       -3.48111930       3.32489092       3.40377993
C       -2.19506376       3.78552287       3.10207460
C       -1.33700609       3.03184270       2.29634936
N       -0.01872886       3.44323099       1.98581650
C        0.58396758       4.64469851       2.29490933
O        0.04933770       5.63888629       2.77353779
C        2.01523212       4.73999551       1.92397079
C        2.38414200       5.82177234       1.11075763
C        3.71760337       6.00194081       0.73868441
C        4.68897915       5.10912601       1.18585386
C        4.33021548       4.03791977       2.00702362
C        2.99439312       3.84962304       2.38178742
H       -3.44363746       0.39200971       1.70316119
H       -4.92981585       1.75481816       3.13489304
H       -4.12988618       3.92306821       4.03918037
H       -1.88687163       4.73411314       3.53108288
H        0.53292544       2.76090432       1.47520988
H        1.63067563       6.53152566       0.77246758
H        3.99745558       6.84445747       0.10972307
H        5.72982924       5.25553869       0.90758682
H        5.10690531       3.36359755       2.36360454
C        2.71231276       2.75307307       3.27151145
C        2.47607046       1.83471248       4.01665533
Br       2.09408664       0.34980107       5.22148995
C        1.79913290      -1.79913290       1.79913290
C        3.15455399      -1.46845877       1.90038487
C        3.99942906      -2.23849796       2.69662384
C        3.48845538      -3.33500088       3.38633389
C        2.13448833      -3.66999636       3.27817653
C        1.27160734      -2.90949199       2.48409883
N       -0.11003059      -3.19299397       2.36481296
C       -0.79524656      -4.27574440       2.87514241
O       -0.31561977      -5.27005138       3.40865476
C       -2.26228170      -4.24017120       2.67084468
C       -2.83635958      -5.35049996       2.03424758
C       -4.21589387      -5.41038101       1.82853471
C       -5.02830404      -4.36717669       2.26712807
C       -4.46442003      -3.26525140       2.91389654
C       -3.08138116      -3.19733928       3.12105922
H        3.55984206      -0.61369109       1.36527522
H        5.05259482      -1.98378523       2.78314700
H        4.14097453      -3.93522208       4.01593814
H        1.78084388      -4.52514055       3.84608322
H       -0.64308310      -2.50798734       1.83828453
H       -2.20700218      -6.17578710       1.70453269
H       -4.65511261      -6.27555229       1.33628528
H       -6.10429214      -4.41834419       2.11924422
H       -5.11828407      -2.47028549       3.26829536
C       -2.58246475      -2.05412822       3.84060830
C       -2.16462226      -1.09668895       4.44323065
Br      -1.48900629       0.45140937       5.41762003
C       -0.00445707       0.01189536      -1.78238275
H       -0.66409135       0.67374010      -2.43557963
H        0.65740317      -0.63156657      -2.45157240
C       -0.90989263      -0.90692880      -0.91072765
C        0.90977584       0.90977584      -0.90977584
C       -0.00465871       1.77757030       0.00794375
H       -0.66225468       2.44313916      -0.64384735
H        0.64322798       2.43503045       0.67728295
C       -1.78241447       0.00034974      -0.00472694
H       -2.45427497      -0.65498947       0.64260836
H       -2.43311707       0.67328779      -0.65473579
C       -0.91132561       0.90220522       0.91563759
C       -0.01476271      -0.02253852       1.78660255
H       -0.67934791      -0.69751639       2.42135241
H        0.63392994       0.61504881       2.47327442
C        0.01484550      -1.77751727      -0.01636693
H        0.67870853      -2.42144646      -0.68295456
H       -0.62264859      -2.45592969       0.64226336
C        1.78714474       0.01002794       0.00389507
H        2.44202412       0.67113390       0.66197326
H        2.45385902      -0.65136977      -0.64189061
C        0.91606151      -0.90478549       0.90901405
