122
Properties=species:S:1:pos:R:3 pbc="F F F"
C        1.79913290       1.79913290      -1.79913290
C        2.59208758       2.76331640      -1.16799366
C        3.41792480       3.58876308      -1.92786298
C        3.44740145       3.44931850      -3.31307020
C        2.64801061       2.49033472      -3.94431590
C        1.81308630       1.65336608      -3.19874577
N        1.00696654       0.65112480      -3.78968501
C        0.81075117       0.41123338      -5.13365570
O        1.18471066       1.10685968      -6.07151604
C       -0.01183672      -0.78177021      -5.44234112
C       -1.13314409      -0.57881216      -6.26034421
C       -1.94553740      -1.65462825      -6.62318749
C       -1.63538185      -2.93826634      -6.17964891
C       -0.51255689      -3.14902065      -5.37630546
C        0.30499516      -2.07429256      -5.00631474
Br       1.84425848      -2.47722201      -3.96923659
H        2.57439329       2.87714292      -0.08727215
H        4.04001932       4.33663233      -1.44287541
H        4.09595331       4.08500934      -3.91117210
H        2.71650885       2.41059342      -5.02496538
H        0.52402626       0.04771457      -3.13144794
H       -1.36996921       0.42036331      -6.62292350
H       -2.81241830      -1.49076176      -7.25990503
H       -2.25973569      -3.77904389      -6.47207585
H       -0.27485902      -4.16244907      -5.05760487
C       -1.79913290      -1.79913290      -1.79913290
C       -1.68748877      -3.18555429      -1.65035458
C       -2.47415731      -4.03278299      -2.42761057
C       -3.36675050      -3.49294905      -3.35009061
C       -3.47203224      -2.10646958      -3.50415940
C       -2.69100791      -1.24068430      -2.73350594
N       -2.78156228       0.16826237      -2.83447643
C       -3.51718660       0.90260866      -3.74106232
O       -4.12135839       0.47819945      -4.71992744
C       -3.49021933       2.36842575      -3.52694061
C       -3.08899066       3.15644115      -4.61583846
C       -3.06324794       4.54809416      -4.50786807
C       -3.44816490       5.15837591      -3.31621173
C       -3.86180049       4.37998776      -2.23291518
C       -3.88742392       2.98371038      -2.33330380
Br      -4.53018680       2.02129002      -0.82737627
H       -0.99333119      -3.61357422      -0.93190295
H       -2.39543331      -5.11085722      -2.31323652
H       -3.98947562      -4.14865328      -3.95400585
H       -4.19218094      -1.73371861      -4.22616810
H       -2.23378548       0.68189213      -2.15129541
H       -2.80306821       2.68435824      -5.55460764
H       -2.75334542       5.15362638      -5.35700593
H       -3.44105542       6.24261221      -3.23485306
H       -4.17918475       4.87641588      -1.31752790
C       -1.79913290       1.79913290       1.79913290
C       -2.48056631       1.18667231       2.85615902
C       -3.29318654       1.94875533       3.69260899
C       -3.42311140       3.31713853       3.46954022
C       -2.74777177       3.92760694       2.40728251
C       -1.92826059       3.17945528       1.55748228
N       -1.20431910       3.75663051       0.48682673
C       -1.26561456       5.05747083       0.03255487
O       -2.06050593       5.92482947       0.37775099
C       -0.30486313       5.38929719      -1.04542614
C       -0.84209643       5.92951203      -2.22322050
C       -0.00360121       6.29672711      -3.27730647
C        1.37477206       6.13599948      -3.15522671
C        1.91694020       5.61152501      -1.97985690
C        1.08172447       5.23857582      -0.91983401
Br       1.92276987       4.60017454       0.65886839
H       -2.38321079       0.11929323       3.03630435
H       -3.82148675       1.47947733       4.51856298
H       -4.04940253       3.91896887       4.12376335
H       -2.86985563       4.99928140       2.28293062
H       -0.57071833       3.12362750       0.00884293
H       -1.91764138       6.07228303      -2.31660680
H       -0.42650939       6.71741843      -4.18720285
H        2.03006352       6.43360816      -3.97024837
H        2.99787488       5.51368162      -1.89550997
C        1.79913290      -1.79913290       1.79913290
C        2.81897516      -1.17728501       2.52713747
C        3.64701350      -1.93724447       3.35029290
C        3.45459155      -3.31336464       3.44183396
C        2.43967331      -3.93578421       2.70720370
C        1.59919840      -3.18998677       1.87601298
N        0.54240024      -3.77066040       1.13471571
C        0.24208515      -5.11036806       1.00318704
O        0.91504572      -6.06047290       1.38756777
C       -0.99475569      -5.40208927       0.24140061
C       -0.87009800      -6.27111630      -0.85263034
C       -1.99165019      -6.62129911      -1.60662708
C       -3.24312188      -6.11380980      -1.26468719
C       -3.37607704      -5.25904047      -0.16823552
C       -2.25511945      -4.90147462       0.59066217
Br      -2.55373395      -3.78913290       2.10087411
H        2.97434268      -0.10365062       2.46081507
H        4.43816333      -1.45917994       3.92218379
H        4.09228460      -3.91102186       4.08882829
H        2.32041616      -5.00874486       2.82290663
H       -0.05393108      -3.10777981       0.64934003
H        0.10354661      -6.68326595      -1.11349495
H       -1.88849848      -7.29774078      -2.45251734
H       -4.11955975      -6.39591356      -1.84305754
H       -4.36563941      -4.89008193       0.09585426
C       -0.00445707       0.01189536      -1.78238275
H       -0.66409135       0.67374010      -2.43557963
H        0.65740317      -0.63156657      -2.45157240
C       -0.90989263      -0.90692880      -0.91072765
C        0.90977584       0.90977584      -0.90977584
C       -0.00465871       1.77757030       0.00794375
H       -0.66225468       2.44313916      -0.64384735
H        0.64322798       2.43503045       0.67728295
C       -1.78241447       0.00034974      -0.00472694
H       -2.45427497      -0.65498947       0.64260836
H       -2.43311707       0.67328779      -0.65473579
C       -0.91132561       0.90220522       0.91563759
C       -0.01476271      -0.02253852       1.78660255
H       -0.67934791      -0.69751639       2.42135241
H        0.63392994       0.61504881       2.47327442
C        0.01484550      -1.77751727      -0.01636693
H        0.67870853      -2.42144646      -0.68295456
H       -0.62264859      -2.45592969       0.64226336
C        1.78714474       0.01002794       0.00389507
H        2.44202412       0.67113390       0.66197326
H        2.45385902      -0.65136977      -0.64189061
C        0.91606151      -0.90478549       0.90901405
