190
Properties=species:S:1:pos:R:3 pbc="F F F"
C        1.79132048       1.79132048      -1.79132048
C        1.20946665       2.76975260      -2.59408640
C        2.01792521       3.57154779      -3.40458059
C        3.40788310       3.39539513      -3.42090976
C        3.98028937       2.43583095      -2.57682153
C        3.17323147       1.62083400      -1.77814230
C        4.22627978       4.29996217      -4.23216183
C        5.26830771       4.02232355      -5.03062264
C        5.99150490       2.81386693      -5.47694657
N        7.13796460       3.11351211      -6.03452209
N        7.22243239       4.50216145      -6.06396608
C        8.42310488       5.09602283      -6.52807588
C        8.60320719       6.48607123      -6.54721309
C        9.81805993       7.05213481      -6.95339351
C       10.86795182       6.22916708      -7.34921533
C       10.71006218       4.84800212      -7.35401112
C        9.49338764       4.28741503      -6.94929691
C        6.09665524       5.15195508      -5.54175647
O        5.81302479       6.33248940      -5.43973512
C        5.52419523       1.43195644      -5.33616417
C        4.20133705       1.06914251      -5.60429076
C        3.80017688      -0.25840440      -5.44673869
C        4.72316098      -1.22798181      -5.04896293
C        6.05255348      -0.87414687      -4.82060616
C        6.45622567       0.45164046      -4.97034152
H        0.13309073       2.92259712      -2.59070702
H        1.55045249       4.33962328      -4.01771523
H        5.05948176       2.30870124      -2.52571020
H        3.63428802       0.86603433      -1.14584760
H        3.95615360       5.34975394      -4.09239625
H        7.81352906       7.16570947      -6.23910853
H        9.93045138       8.13312321      -6.94739688
H       11.52283006       4.19529281      -7.66078493
H        9.39640109       3.20429427      -6.95293021
H        3.47287842       1.80544641      -5.93439519
H        2.76724525      -0.54070277      -5.63529775
H        4.40752769      -2.26081213      -4.92751370
H        6.77497438      -1.63310649      -4.52796430
H        7.49623984       0.71898950      -4.79576768
C       12.12349452       6.81025716      -7.74864848
C       13.17501154       7.29692009      -8.08317374
Br      14.87522561       8.08381291      -8.62407281
C       -1.79132048      -1.79132048      -1.79132048
C       -3.12911518      -1.45654158      -1.98764888
C       -3.93558511      -2.26821419      -2.79025429
C       -3.41135210      -3.41885410      -3.39398179
C       -2.05441790      -3.71805393      -3.22047002
C       -1.24964126      -2.91802287      -2.40454363
C       -4.27044873      -4.20598821      -4.28196685
C       -4.41342854      -5.53720671      -4.37061864
C       -3.88286784      -6.72648216      -3.67296840
N       -4.11448868      -7.82617265      -4.34533747
N       -4.85643481      -7.46600829      -5.46611681
C       -5.15580833      -8.46420960      -6.42718565
C       -5.86001702      -8.17277199      -7.60370250
C       -6.09469431      -9.15978452      -8.56910942
C       -5.62774779     -10.45445404      -8.36413239
C       -4.93993668     -10.77327056      -7.19886818
C       -4.70992595      -9.78387937      -6.23629426
C       -5.15579177      -6.09929310      -5.53528193
O       -5.80041756      -5.44720591      -6.33762585
C       -3.17941222      -6.72563506      -2.38726856
C       -3.61502728      -5.95172605      -1.30801700
C       -2.90661637      -5.97624454      -0.10565027
C       -1.78137634      -6.79220489       0.02943913
C       -1.36992645      -7.59543605      -1.03365028
C       -2.07048656      -7.56924164      -2.23847945
H       -3.55114259      -0.56523875      -1.53001352
H       -4.97585971      -1.98788833      -2.94404296
H       -1.60273825      -4.57410635      -3.71704860
H       -0.20357159      -3.17882063      -2.26377772
H       -4.81107113      -3.58578945      -5.00144322
H       -6.23568794      -7.17410521      -7.80855392
H       -6.63482640      -8.90031746      -9.47582761
H       -4.57034071     -11.78068923      -7.02787786
H       -4.16189952     -10.05478976      -5.33693628
H       -4.50020396      -5.32562290      -1.38689317
H       -3.23104459      -5.36045966       0.72966402
H       -1.23223680      -6.80912673       0.96713428
H       -0.50376822      -8.24415398      -0.92190998
H       -1.74670003      -8.20282846      -3.06146854
C       -5.85227451     -11.46484637      -9.36527928
C       -6.04031563     -12.31104996     -10.20373979
Br      -6.34436222     -13.67928958     -11.55945953
C       -1.79132048       1.79132048       1.79132048
C       -1.91036027       1.51213847       3.15080691
C       -2.72249697       2.31695483       3.95460179
C       -3.42250768       3.39833425       3.40334606
C       -3.25889813       3.69041101       2.04363272
C       -2.46121913       2.87725384       1.23373479
C       -4.20943651       4.25816227       4.29080500
C       -5.43712483       4.77002483       4.11410423
C       -6.49892828       4.69365269       3.08973742
N       -7.40145351       5.62778237       3.25676293
N       -7.05423235       6.32361130       4.41071627
C       -7.81608108       7.46511985       4.76600266
C       -7.50343386       8.24489936       5.88815829
C       -8.23135004       9.40274877       6.18948944
C       -9.28588966       9.79139603       5.36904853
C       -9.62613346       9.02723856       4.25870341
C       -8.89699776       7.86992563       3.96317619
C       -5.91017892       5.82961424       5.05057364
O       -5.34617427       6.16039791       6.07867713
C       -6.57602144       3.71249240       2.00380201
C       -6.30468560       2.35741629       2.21266844
C       -6.38181846       1.46153797       1.14515474
C       -6.75572476       1.91135673      -0.12293939
C       -7.06607494       3.25606425      -0.32312642
C       -6.98404790       4.15555858       0.73860118
H       -1.37119508       0.67948341       3.59571638
H       -2.79675225       2.09384061       5.01719814
H       -3.74601357       4.55327065       1.59460898
H       -2.36403098       3.10670433       0.17543463
H       -3.65856197       4.55177930       5.18796252
H       -6.68361739       7.98331844       6.55141124
H       -7.95806790       9.99210460       7.06079897
H      -10.44740885       9.32087959       3.61061937
H       -9.17595592       7.29322464       3.08444501
H       -6.03169900       1.98442254       3.19659848
H       -6.15219525       0.41005452       1.29959046
H       -6.81506802       1.21106773      -0.95190649
H       -7.37444555       3.60257909      -1.30719245
H       -7.23305951       5.20203106       0.57590645
C      -10.02226794      10.99224734       5.66788488
C      -10.63898475      11.99796031       5.91816032
Br     -11.63616367      13.62411313       6.32283453
C        1.79132048      -1.79132048       1.79132048
C        2.95413193      -2.35158254       1.26759118
C        3.75639477      -3.16293791       2.07472090
C        3.39772603      -3.42232157       3.40414039
C        2.24812827      -2.81758734       3.92722624
C        1.43462849      -2.01980352       3.11777576
C        4.29927382      -4.22201585       4.23711412
C        4.01213995      -5.20522664       5.10388730
C        2.80236043      -5.92022922       5.55972875
N        3.02760943      -6.60585059       6.65253878
N        4.37894826      -6.45920286       6.95040880
C        4.86982865      -7.02197189       8.15540305
C        6.20790726      -6.88015345       8.54843080
C        6.66052549      -7.39228245       9.77078030
C        5.77538754      -8.05706830      10.61387838
C        4.44675655      -8.22459405      10.24072483
C        3.99997378      -7.71286692       9.01725888
C        5.08507326      -5.68236370       6.02292985
O        6.26214877      -5.37730807       5.94579247
C        1.49207906      -5.89661766       4.90361912
C        1.35940156      -5.99931228       3.51605648
C        0.09065003      -5.96235312       2.93550803
C       -1.04593126      -5.85085151       3.73922185
C       -0.91664460      -5.78930628       5.12635110
C        0.34881025      -5.81925612       5.71014128
H        3.24941829      -2.15754572       0.23943085
H        4.66797493      -3.58438785       1.65542821
H        1.96900573      -2.95527820       4.96960927
H        0.53387979      -1.57679615       3.53549401
H        5.34068073      -3.89995064       4.15767243
H        6.93133610      -6.36173102       7.92527994
H        7.70156357      -7.25720640      10.05220150
H        3.74631653      -8.74169976      10.89089151
H        2.95438273      -7.84835374       8.75088909
H        2.23069896      -6.10705485       2.87496621
H       -0.01525677      -6.02205818       1.85503882
H       -2.03236099      -5.82264121       3.28394904
H       -1.80336460      -5.72033075       5.75286603
H        0.44134114      -5.77637995       6.79327593
C        6.23610547      -8.56698000      11.87931469
C        6.62195673      -8.99403105      12.93911760
Br       7.24584559      -9.68453647      14.65272927
C       -0.00445707       0.01189536      -1.78238275
H       -0.66409135       0.67374010      -2.43557963
H        0.65740317      -0.63156657      -2.45157240
C       -0.90989263      -0.90692880      -0.91072765
C        0.90977584       0.90977584      -0.90977584
C       -0.00465871       1.77757030       0.00794375
H       -0.66225468       2.44313916      -0.64384735
H        0.64322798       2.43503045       0.67728295
C       -1.78241447       0.00034974      -0.00472694
H       -2.45427497      -0.65498947       0.64260836
H       -2.43311707       0.67328779      -0.65473579
C       -0.91132561       0.90220522       0.91563759
C       -0.01476271      -0.02253852       1.78660255
H       -0.67934791      -0.69751639       2.42135241
H        0.63392994       0.61504881       2.47327442
C        0.01484550      -1.77751727      -0.01636693
H        0.67870853      -2.42144646      -0.68295456
H       -0.62264859      -2.45592969       0.64226336
C        1.78714474       0.01002794       0.00389507
H        2.44202412       0.67113390       0.66197326
H        2.45385902      -0.65136977      -0.64189061
C        0.91606151      -0.90478549       0.90901405
