161
Properties=species:S:1:pos:R:3 pbc="F F F"
C        0.00000000       0.00000000       0.00000000
C        0.88141645       0.88141645      -0.88141645
C        0.29956262       1.85984858      -1.68418238
C        1.10802119       2.66164377      -2.49467656
C        2.49797907       2.48549110      -2.51100574
C        3.07038535       1.52592693      -1.66691750
C        2.26332744       0.71092997      -0.86823827
C        3.31637576       3.39005815      -3.32225781
C        4.35840368       3.11241952      -4.12071861
C        5.08160088       1.90396291      -4.56704254
N        6.22806058       2.20360809      -5.12461806
N        6.31252836       3.59225743      -5.15406206
C        7.51320085       4.18611880      -5.61817186
C        7.69330316       5.57616721      -5.63730906
C        8.90815590       6.14223078      -6.04348949
C        9.95804779       5.31926305      -6.43931130
Br      11.60541269       6.08169622      -6.96339714
C        9.80015816       3.93809810      -6.44410709
C        8.58348362       3.37751100      -6.03939288
C        5.18675122       4.24205106      -4.63185245
O        4.90312076       5.42258538      -4.52983110
C        4.61429121       0.52205242      -4.42626014
C        3.29143303       0.15923849      -4.69438673
C        2.89027286      -1.16830842      -4.53683466
C        3.81325695      -2.13788584      -4.13905891
C        5.14264946      -1.78405089      -3.91070214
C        5.54632165      -0.45826356      -4.06043749
H       -0.77681330       2.01269309      -1.68080300
H        0.64054846       3.42971925      -3.10781121
H        4.14957773       1.39879722      -1.61580618
H        2.72438400      -0.04386970      -0.23594357
H        3.04624958       4.43984992      -3.18249223
H        6.90362504       6.25580545      -5.32920451
H        9.02054735       7.22321919      -6.03749286
H       10.61292604       3.28538878      -6.75088091
H        8.48649706       2.29439024      -6.04302619
H        2.56297439       0.89554239      -5.02449117
H        1.85734122      -1.45060680      -4.72539372
H        3.49762367      -3.17071616      -4.01760967
H        5.86507036      -2.54301052      -3.61806027
H        6.58633582      -0.19091452      -3.88586365
C       -0.88141645      -0.88141645      -0.88141645
C       -0.46491529      -2.16963335      -1.20904494
C       -1.27080897      -2.97259742      -2.02093513
C       -2.49101813      -2.49056945      -2.51288834
C       -2.91440180      -1.20897288      -2.13985510
C       -2.10289586      -0.39723486      -1.34236497
C       -3.33809877      -3.38603336      -3.30455958
C       -4.02338382      -3.13714982      -4.43100818
C       -4.20577643      -1.99575145      -5.35107845
N       -5.22447431      -2.17823715      -6.15357527
N       -5.73065247      -3.44576046      -5.88243492
C       -6.91333386      -3.85705106      -6.54710660
C       -7.51037805      -5.10026798      -6.29613340
C       -8.71094208      -5.46449888      -6.91843521
C       -9.32666346      -4.58566025      -7.80429843
Br     -10.95927902      -5.06644419      -8.62478285
C       -8.74725113      -3.35292773      -8.08218448
C       -7.54638435      -2.99462277      -7.45938038
C       -5.02035647      -4.14334206      -4.89695620
O       -5.15325531      -5.26418913      -4.43809280
C       -3.37539704      -0.78905002      -5.39815671
C       -1.98146772      -0.84852226      -5.31506827
C       -1.23293274       0.32887091      -5.35473728
C       -1.87146730       1.56174844      -5.50471117
C       -3.25929601       1.61854515      -5.62854985
C       -4.01141917       0.44580925      -5.58288566
H        0.47702336      -2.56094193      -0.83276423
H       -0.93797749      -3.98101885      -2.25908258
H       -3.87973583      -0.82359023      -2.46085507
H       -2.43846435       0.60347425      -1.08146777
H       -3.45126624      -4.37156127      -2.84576421
H       -7.06870115      -5.81384356      -5.60609028
H       -9.15465952      -6.43122636      -6.69537351
H       -9.21893176      -2.65831979      -8.77194418
H       -7.11672899      -2.02158965      -7.68559485
H       -1.46466079      -1.80000481      -5.21834235
H       -0.14968405       0.28803526      -5.27047936
H       -1.28559462       2.47658057      -5.53550313
H       -3.75468366       2.57772305      -5.76315950
H       -5.09322958       0.49767552      -5.68573089
C       -0.88141645       0.88141645       0.88141645
C       -2.19165312       0.49623720       1.15570327
C       -2.99854355       1.30771592       1.95808204
C       -2.50258711       2.50811260       2.48377622
C       -1.17053923       2.85973204       2.23295851
C       -0.36649041       2.05916356       1.41684172
C       -3.35697637       3.29676679       3.37494855
C       -3.55860003       4.62287372       3.41006807
C       -3.11691316       5.80056775       2.63512542
N       -3.36968479       6.91924351       3.26735843
N       -4.04240874       6.57935207       4.43708704
C       -4.34495403       7.60734921       5.36518827
C       -4.98075479       7.34037706       6.58564758
C       -5.21801732       8.36033553       7.51552333
C       -4.82254854       9.66362411       7.23044950
Br      -5.11989813      11.03531433       8.49529359
C       -4.20389694       9.95770837       6.02075804
C       -3.97105060       8.93529962       5.09403729
C       -4.27337141       5.20531611       4.58196721
O       -4.84955566       4.56346184       5.44251974
C       -2.47297150       5.77068339       1.31894888
C       -2.91978468       4.92772540       0.29754818
C       -2.26833538       4.92731685      -0.93685313
C       -1.19018840       5.78594718      -1.16170556
C       -0.76960503       6.65630923      -0.15661355
C       -1.41302989       6.65551635       1.07994933
H       -2.59129051      -0.43385416       0.75924644
H       -4.01639240       0.98829443       2.17339209
H       -0.73788780       3.75782879       2.66846453
H        0.65865255       2.35997622       1.21513420
H       -3.83462919       2.68750968       4.14645285
H       -5.29914671       6.33657298       6.85291531
H       -5.70378572       8.11991493       8.45755874
H       -3.89045204      10.97157260       5.78717109
H       -3.47761359       9.18784354       4.15845637
H       -3.76989817       4.26672652       0.44638326
H       -2.60066352       4.25870033      -1.72723569
H       -0.68536064       5.78328332      -2.12412678
H        0.05897747       7.33746171      -0.33836412
H       -1.08274039       7.34128490       1.85725966
C        0.88141645      -0.88141645       0.88141645
C        2.09014528      -0.38721060       1.36623770
C        2.89815098      -1.19803281       2.16815773
C        2.50546733      -2.50558177       2.48342681
C        1.26819609      -2.97229629       2.02273740
C        0.46598667      -2.17010515       1.20640386
C        3.34707909      -3.30001848       3.38159415
C        3.71411012      -4.58739943       3.29003227
C        3.52136856      -5.69716478       2.33407298
N        3.84317698      -6.85205953       2.86105022
N        4.32706948      -6.59218843       4.13958994
C        4.65210378      -7.69054878       4.97483896
C        5.10328980      -7.51333206       6.29015757
C        5.36278256      -8.61150787       7.11958574
C        5.17560696      -9.90337412       6.63764107
Br       5.50153941     -11.38461243       7.76435422
C        4.74359935     -10.10672164       5.33204236
C        4.48777448      -9.00603570       4.50657733
C        4.35914169      -5.23131442       4.47019862
O        4.74420555      -4.64493807       5.46639362
C        3.03454782      -5.57051483       0.95754112
C        3.48228952      -4.55614376       0.10662498
C        2.98251300      -4.47002241      -1.19373631
C        2.05825865      -5.41025589      -1.65408452
C        1.64178738      -6.44647970      -0.81896637
C        2.13325660      -6.53262108       0.48261790
H        2.40828366       0.62625658       1.13465572
H        3.83426031      -0.79451161       2.54930701
H        0.90889587      -3.96312754       2.29215771
H       -0.48128974      -2.55790752       0.83984009
H        3.64957934      -2.74548270       4.27352968
H        5.25556196      -6.52294516       6.71012787
H        5.70165944      -8.44146117       8.13813879
H        4.59363768     -11.11082884       4.94472922
H        4.14218076      -9.18974250       3.49199024
H        4.21641443      -3.82685583       0.43973769
H        3.31364088      -3.67055297      -1.85206570
H        1.67133314      -5.34044572      -2.66726168
H        0.93527045      -7.18885961      -1.18400995
H        1.80786964      -7.34704751       1.12636780
