186
Properties=species:S:1:pos:R:3 pbc="F F F"
C        1.77696949       1.77696949      -1.77696949
C        1.49722706       2.14229469      -3.07306728
C        2.57766891       2.95502267      -3.49655886
C        3.46332434       3.02780327      -2.43627314
O        2.96378636       2.30720680      -1.38201290
C        4.74528242       3.68390975      -2.32092242
O        5.24179079       4.40796539      -3.17793470
O        5.33492584       3.32865694      -1.10657481
C        6.68854975       3.53051244      -0.75690955
C        6.99619314       3.28665692       0.57984304
C        8.32577427       3.33795835       1.00853378
C        9.36978994       3.63987685       0.11570546
C        9.01967148       3.90736542      -1.22157273
C        7.69319953       3.84231783      -1.66286368
C       10.78237523       3.66197485       0.55689843
C       11.81629754       3.19329462      -0.27815146
C       13.15508532       3.23983687       0.12072710
C       13.47540273       3.73338759       1.37979197
C       12.48137739       4.20301307       2.23255456
C       11.14620555       4.16157855       1.82127843
O       14.83843686       3.86806281       1.68472669
C       15.28254438       3.49116705       2.94985167
O       14.64112904       2.84422536       3.77050954
C       16.61135579       4.01417899       3.16751418
C       17.42812592       3.96872799       4.28339459
C       18.60373347       4.69068267       3.96030461
C       18.44183080       5.12481662       2.66531377
Br      19.67905625       6.13975978       1.70760967
O       17.24229896       4.71839059       2.17531773
H        0.62594712       1.85646161      -3.64576924
H        2.71594586       3.42153798      -4.46315387
H        6.21023364       3.02960669       1.28495205
H        8.53926205       3.10826688       2.05043528
H        9.78720009       4.16743918      -1.94838877
H        7.49028441       4.02154348      -2.71305882
H       11.58832151       2.78449084      -1.26050653
H       13.93453277       2.90212868      -0.55568396
H       12.72512928       4.61726778       3.20616521
H       10.38942502       4.55224624       2.49835682
H       17.18521442       3.48514496       5.22065717
H       19.45790333       4.87532369       4.59681368
C       -1.77696949      -1.77696949      -1.77696949
C       -3.14249147      -1.90082226      -1.66927530
C       -3.53747752      -2.81269865      -2.67907427
C       -2.38556660      -3.20417169      -3.33766247
O       -1.30904313      -2.56101154      -2.78295138
C       -2.18918083      -4.14213568      -4.41879808
O       -3.09099195      -4.71037120      -5.02632773
O       -0.82071705      -4.32293247      -4.62650808
C       -0.23166877      -5.35741420      -5.38688877
C        1.13354988      -5.21256985      -5.62398706
C        1.84165065      -6.23572019      -6.26112930
C        1.20142561      -7.41624789      -6.67913905
C       -0.18375128      -7.51713434      -6.44772401
C       -0.89737127      -6.50486706      -5.79614271
C        1.95267132      -8.51677678      -7.32334619
C        1.64024314      -9.86588867      -7.06209809
C        2.32572334     -10.90929382      -7.69062462
C        3.35797167     -10.61392721      -8.57304281
C        3.69620762      -9.29391702      -8.85412650
C        2.99870333      -8.25691866      -8.22829034
O        3.93365381     -11.69032092      -9.26510588
C        5.31794946     -11.72792666      -9.41388256
O        6.12197278     -11.02312641      -8.81369124
C        5.66620455     -12.70516806     -10.41905710
C        6.89293388     -13.04527371     -10.96111949
C        6.64524956     -14.02950568     -11.94985541
C        5.28619784     -14.24082195     -11.94670954
Br       4.37980726     -15.43424471     -13.05676891
O        4.68506966     -13.44785416     -11.02258733
H       -3.77676756      -1.40082092      -0.95058949
H       -4.53664775      -3.16591027      -2.89807969
H        1.65582612      -4.31958746      -5.29112694
H        2.91329136      -6.10946815      -6.40091686
H       -0.73131938      -8.40067145      -6.77103720
H       -1.95547289      -6.65659227      -5.61282155
H        0.84908676     -10.12211553      -6.36029011
H        2.04253062     -11.93928460      -7.49559143
H        4.48162182      -9.05358354      -9.56427013
H        3.26918486      -7.23335398      -8.47914533
H        7.84503639     -12.61330720     -10.68143141
H        7.36887996     -14.51717367     -12.58811963
C       -1.77696949       1.77696949       1.77696949
C       -2.16535197       1.48386340       3.06337366
C       -2.96687091       2.57080185       3.49157768
C       -3.03273957       3.46046333       2.43419785
O       -2.29607217       2.97023983       1.38669407
C       -3.73962023       4.71299346       2.29750091
O       -4.36320955       5.26773061       3.19675072
O       -3.63091412       5.15974207       0.97950140
C       -4.40881202       6.17950036       0.38765936
C       -3.98007836       6.59429638      -0.87136771
C       -4.74412871       7.51077882      -1.59970868
C       -5.94318516       8.03482666      -1.08405049
C       -6.33204817       7.61436137       0.20220008
C       -5.58181293       6.68501401       0.93155410
C       -6.77330124       8.97909668      -1.86494626
C       -8.18076832       8.92563187      -1.81865657
C       -8.96997841       9.83398040      -2.52976372
C       -8.35657202      10.79587371      -3.32344738
C       -6.96952803      10.87794641      -3.39563855
C       -6.18833462       9.97152784      -2.67335679
O       -9.18818823      11.75497120      -3.92138645
C       -8.94670430      12.12059603      -5.24344057
O       -8.20743583      11.53269192      -6.02528289
C       -9.67549690      13.33014003      -5.54761632
C       -9.69576574      14.10881991      -6.69112633
C      -10.54364606      15.21144283      -6.42097736
C      -10.99954692      15.03692438      -5.13513766
Br     -12.15301009      16.19386569      -4.23566942
O      -10.48364120      13.90084535      -4.59911473
H       -1.90811022       0.59601236       3.62405539
H       -3.45982806       2.69375350       4.44705615
H       -3.06866292       6.18759722      -1.30137187
H       -4.40257518       7.78910019      -2.59458172
H       -7.24043182       8.00613920       0.65645701
H       -5.95233691       6.37122521       1.90132458
H       -8.68382241       8.16915656      -1.21966009
H      -10.05206347       9.79053678      -2.45025483
H       -6.48166767      11.64455080      -3.98998662
H       -5.10618666      10.06836938      -2.73124160
H       -9.14442958      13.90517713      -7.59990449
H      -10.78490927      16.03279531      -7.08129124
C        1.77696949      -1.77696949       1.77696949
C        2.96359086      -2.35641894       1.39257923
C        3.43354506      -3.07827096       2.51743442
C        2.49733274      -2.90837718       3.52169083
O        1.48571057      -2.10438518       3.06291031
C        2.44234163      -3.44642668       4.86134629
O        3.32881920      -4.11285134       5.38602034
O        1.21261723      -3.12124922       5.43629114
C        0.67148195      -3.69759974       6.60689004
C       -0.46812907      -3.06815626       7.10297983
C       -1.15535777      -3.62513049       8.18542613
C       -0.71564619      -4.81329719       8.79631033
C        0.45456395      -5.40755311       8.28649257
C        1.13959711      -4.86577164       7.19301228
C       -1.45857429      -5.42555705       9.92046889
C       -1.57837283      -6.82445892      10.04165753
C       -2.25248881      -7.40933633      11.11734757
C       -2.84310150      -6.59546558      12.07663427
C       -2.74748889      -5.21016991      11.98915487
C       -2.06301875      -4.63439694      10.91512749
O       -3.40401749      -7.23081298      13.19497749
C       -4.63309691      -6.78341593      13.67354074
O       -5.39505949      -6.02167249      13.08823186
C       -4.86106886      -7.32659205      14.99249742
C       -5.89114103      -7.11330925      15.89129110
C       -5.58017084      -7.85896894      17.05531343
C       -4.38662497      -8.49151848      16.79644014
Br      -3.48301822      -9.61227030      17.98195427
O       -3.94482237      -8.17935369      15.55084050
H        3.43212943      -2.27431838       0.42173016
H        4.33521222      -3.67177826       2.59364723
H       -0.84091616      -2.16111965       6.63468478
H       -2.06184872      -3.13059035       8.52835202
H        0.84969392      -6.31636959       8.73696452
H        2.01357299      -5.38966345       6.82165026
H       -1.14104021      -7.48166116       9.29269793
H       -2.30160814      -8.49068852      11.20326504
H       -3.18066410      -4.56739032      12.74950563
H       -1.98578833      -3.54971673      10.87938604
H       -6.75047601      -6.47730811      15.72287012
H       -6.15355265      -7.92013976      17.96982623
C       -0.00445707       0.01189536      -1.78238275
H       -0.66409135       0.67374010      -2.43557963
H        0.65740317      -0.63156657      -2.45157240
C       -0.90989263      -0.90692880      -0.91072765
C        0.90977584       0.90977584      -0.90977584
C       -0.00465871       1.77757030       0.00794375
H       -0.66225468       2.44313916      -0.64384735
H        0.64322798       2.43503045       0.67728295
C       -1.78241447       0.00034974      -0.00472694
H       -2.45427497      -0.65498947       0.64260836
H       -2.43311707       0.67328779      -0.65473579
C       -0.91132561       0.90220522       0.91563759
C       -0.01476271      -0.02253852       1.78660255
H       -0.67934791      -0.69751639       2.42135241
H        0.63392994       0.61504881       2.47327442
C        0.01484550      -1.77751727      -0.01636693
H        0.67870853      -2.42144646      -0.68295456
H       -0.62264859      -2.45592969       0.64226336
C        1.78714474       0.01002794       0.00389507
H        2.44202412       0.67113390       0.66197326
H        2.45385902      -0.65136977      -0.64189061
C        0.91606151      -0.90478549       0.90901405
