165
Properties=species:S:1:pos:R:3 pbc="F F F"
C        0.00000000       0.00000000       0.00000000
C        0.86706546       0.86706546      -0.86706546
C        0.58732303       1.23239067      -2.16316325
C        1.66776489       2.04511865      -2.58665483
C        2.55342031       2.11789925      -1.52636912
O        2.05388233       1.39730278      -0.47210888
C        3.83537840       2.77400572      -1.41101840
O        4.33188676       3.49806136      -2.26803068
O        4.42502182       2.41875291      -0.19667079
C        5.77864573       2.62060842       0.15299447
C        6.08628912       2.37675290       1.48974706
C        7.41587025       2.42805432       1.91843780
C        8.45988591       2.72997283       1.02560949
C        8.10976746       2.99746139      -0.31166871
C        6.78329551       2.93241381      -0.75295965
C        9.87247121       2.75207083       1.46680246
C       10.90639352       2.28339059       0.63175256
C       12.24518129       2.32993285       1.03063112
C       12.56549871       2.82348356       2.28969600
C       11.57147336       3.29310904       3.14245859
C       10.23630153       3.25167453       2.73118246
O       13.92853284       2.95815879       2.59463071
C       14.37264036       2.58126303       3.85975570
O       13.73122502       1.93432133       4.68041356
C       15.70145177       3.10427497       4.07741820
C       16.51822189       3.05882397       5.19329861
C       17.69382945       3.78077864       4.87020863
C       17.53192678       4.21491259       3.57521779
Br      18.76915222       5.22985576       2.61751370
O       16.33239494       3.80848656       3.08522176
H       -0.28395690       0.94655758      -2.73586521
H        1.80604183       2.51163396      -3.55324985
H        5.30032961       2.11970266       2.19485607
H        7.62935803       2.19836285       2.96033930
H        8.87729606       3.25753516      -1.03848474
H        6.58038038       3.11163946      -1.80315480
H       10.67841749       1.87458682      -0.35060250
H       13.02462875       1.99222466       0.35422006
H       11.81522526       3.70736376       4.11606923
H        9.47952100       3.64234221       3.40826084
H       16.27531040       2.57524094       6.13056120
H       18.54799930       3.96541967       5.50671770
C       -0.86706546      -0.86706546      -0.86706546
C       -1.99254469      -1.53925471      -0.45107755
C       -2.48805681      -2.22245098      -1.58903058
C       -1.62642233      -1.93794971      -2.63331664
O       -0.63666415      -1.10134379      -2.18528604
C       -1.62259382      -2.39347920      -4.00432950
O       -2.49961618      -3.08154594      -4.51681668
O       -0.45116500      -1.96103529      -4.62824523
C        0.04964148      -2.43472409      -5.86117706
C        1.11855750      -1.70915421      -6.38269825
C        1.76921804      -2.15967686      -7.53502795
C        1.36218807      -3.33532235      -8.19111498
C        0.26159251      -4.02849371      -7.65199635
C       -0.38532888      -3.59361188      -6.48972821
C        2.06898568      -3.83512049      -9.39160477
C        2.26160753      -5.21474738      -9.60489170
C        2.90122428      -5.69426653     -10.75144078
C        3.38410188      -4.79181459     -11.69157356
C        3.21430170      -3.42232165     -11.51410388
C        2.56479069      -2.95241254     -10.36917175
O        3.91121926      -5.32609386     -12.87718630
C        5.08085685      -4.77746037     -13.39754417
O        5.83202000      -4.00552977     -12.81162303
C        5.25861601      -5.22870462     -14.75821993
C        6.21773081      -4.90130463     -15.70017343
C        5.87961521      -5.59623515     -16.88777952
C        4.74261568      -6.31452254     -16.59971471
Br       3.83427607      -7.41824964     -17.79752072
O        4.36061422      -6.10232891     -15.31394506
H       -2.40473728      -1.54210389       0.54837527
H       -3.35697160      -2.86464793      -1.64930611
H        1.46638369      -0.80951709      -5.88204280
H        2.62299296      -1.59163250      -7.89874204
H       -0.10730393      -4.93229963      -8.13371241
H       -1.20327095      -4.19055360      -6.10135008
H        1.90956010      -5.93957610      -8.87359081
H        3.00726514      -6.76382818     -10.90607031
H        3.56234091      -2.71146209     -12.25739860
H        2.42747539      -1.87836189     -10.26271587
H        7.04765661      -4.22467227     -15.54297448
H        6.39852090      -5.56936198     -17.83586019
C       -0.86706546       0.86706546       0.86706546
C       -1.31194895       0.54335539       2.12757262
C       -2.08990569       1.64301346       2.56661921
C       -2.08610558       2.57099099       1.54059211
O       -1.32951123       2.09134713       0.50243563
C       -2.74322340       3.85239016       1.42478896
O       -3.37923805       4.39755411       2.32118664
O       -2.57112760       4.34081241       0.12850551
C       -3.29079863       5.40826712      -0.45280608
C       -2.80234495       5.85108695      -1.68013695
C       -3.50684772       6.81967832      -2.40103927
C       -4.70473912       7.36853726      -1.90902713
C       -5.15456045       6.91765315      -0.65331605
C       -4.46434283       5.93667954       0.06764660
C       -5.47234072       8.36912223      -2.68372338
C       -6.88156897       8.36522407      -2.68876149
C       -7.61211044       9.32600173      -3.39362915
C       -6.93694731      10.29220534      -4.12986637
C       -5.54617276      10.32632448      -4.15037341
C       -4.82397598       9.36737386      -3.43455624
O       -7.71217268      11.30124136      -4.72135313
C       -7.41016414      11.70396268      -6.01997913
O       -6.66404453      11.11735772      -6.79626946
C       -8.08458947      12.94909594      -6.30537687
C       -8.03600883      13.76759565      -7.41985723
C       -8.85397745      14.89014139      -7.13971937
C       -9.36211666      14.68733993      -5.87783501
Br     -10.50623255      15.85317846      -4.97791672
O       -8.90615313      13.51518484      -5.36567822
H       -1.10651580      -0.37235733       2.66430742
H       -2.61262956       1.75022692       3.50806916
H       -1.89072633       5.42687269      -2.09242282
H       -3.11984041       7.12010623      -3.37256506
H       -6.06455497       7.32600501      -0.21724401
H       -4.88061494       5.60276140       1.01179829
H       -7.43224998       7.60699165      -2.13563482
H       -8.69722672       9.31912952      -3.35372290
H       -5.01047995      11.09506201      -4.69902218
H       -3.73771087       9.42681580      -3.45092430
H       -7.45950452      13.57603682      -8.31555119
H       -9.04216421      15.74235170      -7.77781464
C        0.86706546      -0.86706546       0.86706546
C        2.24018992      -0.81620536       0.92648167
C        2.63183315      -1.80101422       1.86669100
C        1.47287622      -2.40692847       2.31788399
O        0.39281252      -1.82575151       1.70472995
C        1.27748542      -3.49550213       3.24741498
O        2.16954970      -4.03016711       3.89826199
O       -0.07003340      -3.85979099       3.25068793
C       -0.60201971      -5.04675132       3.80152806
C       -1.99264029      -5.09395172       3.87198353
C       -2.62900733      -6.26735575       4.28713835
C       -1.89182047      -7.41022566       4.64584407
C       -0.48800058      -7.31818059       4.58871754
C        0.15691021      -6.15294802       4.15881074
C       -2.56129287      -8.66574769       5.05328476
C       -2.04571299      -9.92320633       4.68053821
C       -2.65614288     -11.11278848       5.08783742
C       -3.81374294     -11.05811134       5.85491788
C       -4.35320120      -9.83491195       6.24041307
C       -3.73040283      -8.65059473       5.83660170
O       -4.31911635     -12.27578337       6.33539389
C       -5.69423242     -12.49318404       6.29519607
O       -6.50886452     -11.81368436       5.68031295
C       -6.02513764     -13.62806144       7.12538474
C       -7.25098040     -14.17675157       7.45797608
C       -6.99237543     -15.24712730       8.34964759
C       -5.62624619     -15.29689104       8.50097673
Br      -4.70571325     -16.51267488       9.57453265
O       -5.03154448     -14.32472636       7.76247787
H        2.88224307      -0.15565863       0.36056420
H        3.63655524      -2.06152387       2.17284653
H       -2.58573490      -4.23167283       3.57923828
H       -3.71686020      -6.28594561       4.29829617
H        0.12985798      -8.16696607       4.87649191
H        1.23984532      -6.15527528       4.10005404
H       -1.15159128      -9.99113905       4.06405903
H       -2.21905953     -12.06819964       4.81349323
H       -5.24054518      -9.78305642       6.86400854
H       -4.16060999      -7.70738446       6.16682790
H       -8.21268880     -13.82525253       7.10742641
H       -7.71467769     -15.89532032       8.82605863
