110
Properties=species:S:1:pos:R:3 pbc="F F F"
C        1.79523440       1.79523440      -1.79523440
C        1.53150676       3.16384437      -1.85349509
C        2.32762135       3.99099080      -2.65492414
C        2.05195935       5.44639207      -2.71744575
N        1.08002584       5.96916202      -2.04171166
N        0.89017747       7.31875118      -2.14677253
C       -0.10990572       7.99505112      -1.49600090
N       -0.06149304       9.27783922      -1.77179034
N        0.99482124       9.47271028      -2.62620429
C        1.55215381       8.30084525      -2.84023390
C        3.38290919       3.44460786      -3.39437622
O        4.15058354       4.27216254      -4.17345889
C        3.64394618       2.06901198      -3.33271877
Br       5.08387863       1.34465575      -4.34513303
C        2.84857909       1.24318183      -2.53132070
O        3.11317190      -0.10018868      -2.47775058
H        0.71076390       3.58690420      -1.27806084
H        2.72180584       6.03320451      -3.36779256
H       -0.82038096       7.49956493      -0.85307197
H        2.41020909       8.13099932      -3.47046068
H        4.83047819       3.72395520      -4.61227234
H        2.46794060      -0.51619795      -1.87654081
C       -1.79523440      -1.79523440      -1.79523440
C       -1.45526695      -3.13873196      -1.95484731
C       -2.24988149      -3.96544866      -2.75820614
C       -1.89316262      -5.39441246      -2.92822208
N       -0.85150308      -5.89410702      -2.34528941
N       -0.58920391      -7.22053032      -2.54596694
C        0.48800551      -7.86993894      -1.99921288
N        0.49825765      -9.13468915      -2.35170502
N       -0.59628225      -9.34470264      -3.15275092
C       -1.23423981      -8.19957067      -3.25942249
C       -3.37998331      -3.44370024      -3.39820972
O       -4.14483554      -4.27035754      -4.18101189
C       -3.71746958      -2.09327451      -3.23493283
Br      -5.25844944      -1.40224982      -4.11296814
C       -2.92352391      -1.26791432      -2.43164339
O       -3.26315638       0.05066070      -2.27823812
H       -0.57642872      -3.54265902      -1.45664120
H       -2.56669122      -5.98268676      -3.57342493
H        1.20694268      -7.36965964      -1.36953898
H       -2.13872918      -8.04701983      -3.82592007
H       -4.88216327      -3.74097462      -4.54356784
H       -2.60714405       0.47012584      -1.69126524
C       -1.79523440       1.79523440       1.79523440
C       -3.01071195       1.28570148       2.25243279
C       -3.83454162       2.07649208       3.06250258
C       -5.12590032       1.53751206       3.55238478
N       -5.50913342       0.34159663       3.24016946
N       -6.70990414      -0.08713230       3.73292932
C       -7.23830855      -1.32461461       3.46745236
N       -8.39719775      -1.47508210       4.06602087
N       -8.65680637      -0.31485231       4.75178175
C       -7.64605008       0.50108895       4.54609393
C       -3.43846616       3.37305065       3.41037646
O       -4.26020054       4.13138236       4.20462208
C       -2.21647662       3.88065363       2.94854668
Br      -1.69485474       5.64601145       3.43280122
C       -1.39349323       3.08985609       2.13973230
O       -0.20047455       3.59579083       1.69446842
H       -3.31706894       0.27762942       1.98103058
H       -5.71893337       2.21734375       4.18652579
H       -6.73529240      -2.04717681       2.84414035
H       -7.56002979       1.49369958       4.95793971
H       -3.82779142       4.99715413       4.34176018
H        0.23763868       2.91507869       1.15084345
C        1.79523440      -1.79523440       1.79523440
C        3.10943621      -1.39759938       2.04181064
C        3.93525494      -2.19044630       2.84783505
C        5.33176506      -1.76984358       3.11418853
N        5.80520900      -0.67651073       2.60917979
N        7.10030331      -0.35254164       2.90285622
C        7.72750314       0.76838495       2.42202811
N        8.96328930       0.83565171       2.86049892
N        9.17524640      -0.26271410       3.65577531
C        8.06021499      -0.95992347       3.67309450
C        3.44229558      -3.37721829       3.40237940
O        4.26770767      -4.13961936       4.18887794
C        2.12130236      -3.77264134       3.15173322
Br       1.46886707      -5.38958295       3.91521740
C        1.29647961      -2.97975361       2.34684840
O        0.00634755      -3.37537494       2.10901131
H        3.49102415      -0.47478745       1.60991733
H        5.92021037      -2.44370884       3.75888370
H        7.23399203       1.47399920       1.77226311
H        7.91551482      -1.87986657       4.21628770
H        3.76085990      -4.92130668       4.48453914
H       -0.41773615      -2.71027115       1.53574846
C       -0.00445707       0.01189536      -1.78238275
H       -0.66409135       0.67374010      -2.43557963
H        0.65740317      -0.63156657      -2.45157240
C       -0.90989263      -0.90692880      -0.91072765
C        0.90977584       0.90977584      -0.90977584
C       -0.00465871       1.77757030       0.00794375
H       -0.66225468       2.44313916      -0.64384735
H        0.64322798       2.43503045       0.67728295
C       -1.78241447       0.00034974      -0.00472694
H       -2.45427497      -0.65498947       0.64260836
H       -2.43311707       0.67328779      -0.65473579
C       -0.91132561       0.90220522       0.91563759
C       -0.01476271      -0.02253852       1.78660255
H       -0.67934791      -0.69751639       2.42135241
H        0.63392994       0.61504881       2.47327442
C        0.01484550      -1.77751727      -0.01636693
H        0.67870853      -2.42144646      -0.68295456
H       -0.62264859      -2.45592969       0.64226336
C        1.78714474       0.01002794       0.00389507
H        2.44202412       0.67113390       0.66197326
H        2.45385902      -0.65136977      -0.64189061
C        0.91606151      -0.90478549       0.90901405
