170
Properties=species:S:1:pos:R:3 pbc="F F F"
N        0.39976664       3.96682761      -5.90844336
C        1.22321679       3.18917513      -6.11340797
C        2.22909068       2.23924473      -6.36377959
C        3.00055299       1.78102964      -5.35224313
C        2.83030459       2.18653012      -3.94841449
C        2.03983591       1.39264544      -3.10743745
C        1.79436298       1.79436298      -1.79436298
C        2.34157496       2.98649143      -1.32371159
O        2.09709003       3.40367454      -0.03956958
C        3.14556067       3.78500773      -2.15114899
O        3.61654387       4.92908334      -1.55655724
C        4.46750961       5.75983562      -2.33738052
C        3.38839294       3.38111535      -3.46680553
C        2.45547989       1.63429424      -7.71870912
O        3.24717716       0.70420725      -7.84088635
N        1.74060763       2.20907068      -8.75162162
C        1.71097558       1.79067925     -10.10871715
C        2.27754305       0.59091837     -10.55251721
C        2.21417478       0.22322587     -11.90123943
C        1.58448588       1.05004720     -12.82664955
C        1.00627321       2.24450928     -12.40408307
C        1.06348758       2.60807319     -11.05442420
H        3.76808801       1.02652797      -5.51814431
H        1.60052968       0.46968291      -3.48030976
H        2.55028846       4.26462273       0.04638335
H        4.76974817       6.60652222      -1.71329924
H        3.93741923       6.15935350      -3.20791611
H        5.37508023       5.22485804      -2.63532035
H        3.99296708       3.98482850      -4.13626333
H        1.19915223       3.05052429      -8.57514162
H        2.76659961      -0.10012390      -9.87299644
H        2.65881935      -0.71600517     -12.22349593
H        1.54227346       0.76167634     -13.87407266
H        0.51520781       2.88483621     -13.13236199
C        0.45112429       3.85394223     -10.67177352
C       -0.06172996       4.89735754     -10.35130357
Br      -0.89097192       6.58447187      -9.83313078
N       -5.49021334      -4.53898189      -0.24584238
C       -4.64968788      -5.19159886      -0.68451315
C       -3.62295587      -5.98879390      -1.22036523
C       -2.67843299      -5.43890171      -2.01649104
C       -2.61896169      -4.00527118      -2.34101633
C       -1.80847051      -3.16968072      -1.56176758
C       -1.79436298      -1.79436298      -1.79436298
C       -2.58752757      -1.25754399      -2.80670642
O       -2.59693936       0.09490278      -3.03829758
C       -3.39439012      -2.08420745      -3.60311982
O       -4.12098579      -1.42084936      -4.56034931
C       -4.93006980      -2.21293989      -5.42171605
C       -3.40802983      -3.46152270      -3.36676129
C       -3.47082791      -7.44555431      -0.89210103
O       -2.47164986      -8.04952320      -1.27109770
N       -4.51471675      -8.00531471      -0.18126847
C       -4.59573698      -9.33264192       0.31800693
C       -3.51399478     -10.21987980       0.31289595
C       -3.64660060     -11.51587994       0.82384046
C       -4.86297488     -11.94465144       1.34644369
C       -5.94985698     -11.07413152       1.36912293
C       -5.81468725      -9.77622893       0.86493121
H       -1.85957848      -6.03158260      -2.42159921
H       -1.20106387      -3.58777637      -0.76168211
H       -3.24060160       0.23209539      -3.76002163
H       -5.41750001      -1.53903728      -6.13303233
H       -5.71488000      -2.72973332      -4.86007552
H       -4.32090012      -2.91892199      -5.99543651
H       -4.03354881      -4.12534580      -3.95516430
H       -5.35380517      -7.45743281      -0.01358016
H       -2.53793578      -9.93451291      -0.06702346
H       -2.79105956     -12.18791990       0.81266935
H       -4.96167828     -12.95416456       1.73782037
H       -6.89658954     -11.41560570       1.77978923
C       -6.97007169      -8.91800851       0.91124017
C       -7.93770616      -8.19924891       0.95002391
Br      -9.50228925      -7.03707543       1.01273395
N       -0.20353535       4.88371148       5.18779078
C       -0.82597058       4.03896378       5.66086553
C       -1.58629754       3.00707416       6.23874331
C       -2.40731799       2.25433339       5.47217437
C       -2.53637033       2.41347164       4.01540723
C       -1.75314228       1.61030564       3.17647089
C       -1.79436298       1.79436298       1.79436298
C       -2.62009097       2.77813937       1.25354764
O       -2.66063218       2.98242147      -0.10271950
C       -3.41940401       3.58117577       2.08113762
O       -4.18157685       4.50719431       1.41341330
C       -5.03972397       5.32551922       2.19948256
C       -3.37481486       3.39589995       3.46559902
C       -1.48228076       2.63660323       7.68959926
O       -2.05850046       1.63354324       8.10022706
N       -0.73448224       3.49757275       8.46924494
C       -0.41640923       3.34841178       9.84555097
C       -0.67397431       2.17858229      10.56842203
C       -0.33389666       2.08231106      11.92243236
C        0.26767587       3.15454665      12.57431184
C        0.54083357       4.32499599      11.87070315
C        0.20734704       4.41804740      10.51528461
H       -2.98589927       1.43350642       5.89335460
H       -1.09734889       0.85266864       3.60050482
H       -3.27364571       3.73103286      -0.23615074
H       -5.58754031       5.98386027       1.51816905
H       -4.46394878       5.95748590       2.88325417
H       -5.77435490       4.72035733       2.74054639
H       -3.96911240       4.01169274       4.13325377
H       -0.39303350       4.36553988       8.06624476
H       -1.12599918       1.30567979      10.10779318
H       -0.54053085       1.16166266      12.46411661
H        0.52551467       3.07595544      13.62758170
H        1.01183144       5.15806879      12.38616865
C        0.51030910       5.65110901       9.83604013
C        0.76403983       6.68379811       9.26717288
Br       1.17430096       8.35356903       8.34736265
N        5.73867691      -4.21542723       0.32093348
C        4.91619256      -4.94233237       0.66727497
C        3.91149842      -5.83027307       1.09034352
C        2.88942943      -5.38748140       1.85691492
C        2.72172677      -3.98284549       2.26067694
C        1.90783678      -3.14929556       1.48278647
C        1.79436298      -1.79436298       1.79436298
C        2.49172399      -1.27609799       2.88395600
O        2.40316832       0.05749058       3.19465641
C        3.30043461      -2.10203708       3.67924570
O        3.92681458      -1.45816763       4.71720225
C        4.73177045      -2.25358105       5.57937425
C        3.41378774      -3.45875261       3.36377347
C        3.87004096      -7.27013917       0.66830312
O        2.88995522      -7.95416462       0.94815092
N        4.98672056      -7.72225021      -0.00767085
C        5.17951954      -9.00881088      -0.57795844
C        4.15678092      -9.95659410      -0.69239638
C        4.39970721     -11.20818758      -1.26925471
C        5.66902303     -11.53140633      -1.73924673
C        6.69895629     -10.59888242      -1.64297314
C        6.45375318      -9.34512283      -1.07289104
H        2.08676844      -6.05130576       2.17468609
H        1.37569045      -3.55160829       0.62322361
H        2.99355365       0.18694670       3.96192089
H        5.13363820      -1.59790646       6.35802496
H        5.57888775      -2.68739178       5.03840930
H        4.13519411      -3.02849932       6.07156520
H        4.04387372      -4.12012038       3.95006481
H        5.79840108      -7.11667873      -0.09026167
H        3.14421447      -9.75325139      -0.35799371
H        3.58856300     -11.92866591      -1.35091880
H        5.85328831     -12.50701134      -2.18227719
H        7.68760746     -10.85792999      -2.01313145
C        7.55409095      -8.41935934      -0.99661026
C        8.47562384      -7.64403242      -0.93272510
Br       9.96566457      -6.39039437      -0.82942821
C       -0.00445707       0.01189536      -1.78238275
H       -0.66409135       0.67374010      -2.43557963
H        0.65740317      -0.63156657      -2.45157240
C       -0.90989263      -0.90692880      -0.91072765
C        0.90977584       0.90977584      -0.90977584
C       -0.00465871       1.77757030       0.00794375
H       -0.66225468       2.44313916      -0.64384735
H        0.64322798       2.43503045       0.67728295
C       -1.78241447       0.00034974      -0.00472694
H       -2.45427497      -0.65498947       0.64260836
H       -2.43311707       0.67328779      -0.65473579
C       -0.91132561       0.90220522       0.91563759
C       -0.01476271      -0.02253852       1.78660255
H       -0.67934791      -0.69751639       2.42135241
H        0.63392994       0.61504881       2.47327442
C        0.01484550      -1.77751727      -0.01636693
H        0.67870853      -2.42144646      -0.68295456
H       -0.62264859      -2.45592969       0.64226336
C        1.78714474       0.01002794       0.00389507
H        2.44202412       0.67113390       0.66197326
H        2.45385902      -0.65136977      -0.64189061
C        0.91606151      -0.90478549       0.90901405
