154
Properties=species:S:1:pos:R:3 pbc="F F F"
C        1.78111201       1.78111201      -1.78111201
C        1.95083160       1.58154957      -3.12623050
C        2.81998237       2.56733182      -3.68485339
C        3.25431879       3.49158657      -2.74782488
S        2.65632514       3.10113424      -1.18653223
C        4.15613506       4.61749015      -2.96053549
N        4.05765569       5.81764074      -2.46781029
N        3.02654118       6.14178324      -1.63881233
C        2.85653830       7.44884942      -1.18848214
O        3.57548629       8.37520934      -1.55790941
C        1.74191858       7.63201273      -0.26397480
S        1.18696581       6.33401886       0.70507470
C       -0.00196930       7.29504064       1.48480906
C       -0.89983144       6.87275722       2.48619850
C       -1.81162183       7.79586347       2.99836127
C       -1.84214111       9.10242906       2.53723853
C       -0.94355772       9.51291117       1.54734679
C        0.00457111       8.60544335       1.00221330
C        1.02519134       8.78356151      -0.00277360
Cl       1.25238316      10.29974668      -0.78392137
C        5.30589796       4.38237454      -3.92049568
H        1.48608159       0.78081626      -3.68904877
H        3.09369230       2.60185573      -4.73361398
H        2.39432631       5.41503374      -1.32159910
H       -0.87777806       5.84839402       2.84797545
H       -2.55610359       9.81788463       2.93711147
H       -0.97465852      10.54287898       1.19637438
H        4.93039435       4.38974967      -4.94763525
H        5.78006891       3.41824038      -3.71493036
H        6.05679739       5.17123908      -3.81705753
C       -2.73587027       7.38117715       4.02178692
C       -3.50992834       7.03387735       4.87890591
Br      -4.76151477       6.47232296       6.26479482
C       -1.78111201      -1.78111201      -1.78111201
C       -2.35731633      -1.35288548      -2.94840986
C       -3.11498567      -2.39786130      -3.55932061
C       -3.06239142      -3.58513417      -2.84620465
S       -2.15167142      -3.38815285      -1.40416734
C       -3.72426824      -4.84461336      -3.16527911
N       -3.23735317      -6.04649180      -3.05926175
N       -1.97168313      -6.24077427      -2.59467935
C       -1.40666887      -7.51373504      -2.57346595
O       -1.98379884      -8.50186277      -3.02294343
C       -0.06648500      -7.57328208      -1.99813903
S        0.44430535      -6.41156795      -0.84864737
C        1.98067780      -7.14757636      -0.64136372
C        3.00941777      -6.71715928       0.22101423
C        4.20370157      -7.43741247       0.24783054
C        4.38427068      -8.55314808      -0.55417203
C        3.35552408      -8.97518507      -1.40234568
C        2.12139740      -8.27261398      -1.45658458
C        0.92433603      -8.50785235      -2.22801014
Cl       0.81952535      -9.82290452      -3.33267203
C       -5.11837144      -4.73860568      -3.75179106
H       -2.25074826      -0.35308622      -3.35211213
H       -3.65580286      -2.28133009      -4.49202906
H       -1.44745344      -5.45246103      -2.23104469
H        2.86967384      -5.84194123       0.84962689
H        5.31752886      -9.10998249      -0.53221594
H        3.50794883      -9.85544975      -2.02434516
H       -5.05121197      -4.42055191      -4.79601538
H       -5.71194633      -4.01212441      -3.18916891
H       -5.62326977      -5.70838081      -3.71344342
C        5.26490928      -7.01149031       1.12306107
C        6.15367074      -6.65478050       1.85606665
Br       7.59072286      -6.07801090       3.04127467
C       -1.78111201       1.78111201       1.78111201
C       -1.43882760       2.16997023       3.04981383
C       -2.45184894       2.99729747       3.62302117
C       -3.51020290       3.22573485       2.75779250
S       -3.28891316       2.36800502       1.28707344
C       -4.71561682       4.00546908       3.01307480
N       -5.31890623       4.82342427       2.20077623
N       -4.83986897       5.02553065       0.94173713
C       -5.41866869       5.97372504       0.10147614
O       -6.33390387       6.70975421       0.46494696
C       -4.83372235       6.03847873      -1.23429498
S       -4.06520404       4.67055688      -1.91985095
C       -3.72604979       5.47794230      -3.39572981
C       -3.07318216       4.93412452      -4.52057940
C       -2.87183582       5.74884479      -5.63480024
C       -3.30011797       7.06686235      -5.64393090
C       -3.95164741       7.59533606      -4.52497680
C       -4.18098229       6.79799157      -3.37117270
C       -4.82607366       7.10161027      -2.11615747
Cl      -5.47205792       8.66492881      -1.80093552
C       -5.29631933       3.90260586       4.40984299
H       -0.52053734       1.88571989       3.54968938
H       -2.38989405       3.41914319       4.62012477
H       -4.07243865       4.45577805       0.60274245
H       -2.73589834       3.90122023      -4.51447806
H       -3.13878976       7.69913408      -6.51325428
H       -4.28701088       8.63074692      -4.54591172
H       -4.68139838       4.48259014       5.10379075
H       -5.32129137       2.85808014       4.73386814
H       -6.31539451       4.30003453       4.42966497
C       -2.20663636       5.20924006      -6.79235646
C       -1.64953181       4.75732109      -7.76180980
Br      -0.74874087       4.02660635      -9.32933385
C        1.78111201      -1.78111201       1.78111201
C        2.48469251      -1.31369938       2.86021977
C        3.20780085      -2.36815638       3.49621035
C        3.00377670      -3.59844968       2.89150386
S        1.99320130      -3.43792873       1.51286158
C        3.59061434      -4.88055600       3.26299035
N        3.00494669      -6.04190195       3.29625809
N        1.69351421      -6.16462197       2.94900057
C        1.03187518      -7.38346405       3.07853064
O        1.56647319      -8.37878482       3.56334703
C       -0.35245100      -7.37464720       2.61570991
S       -0.86647325      -6.26663294       1.41575029
C       -2.46717175      -6.88489185       1.39054218
C       -3.52826156      -6.43768277       0.57730607
C       -4.77273905      -7.05503840       0.70358102
C       -4.97116678      -8.08623338       1.60798282
C       -3.91061414      -8.52621730       2.40640351
C       -2.62562101      -7.92765020       2.30577197
C       -1.38983767      -8.20212877       2.99923535
Cl      -1.29477280      -9.43186569       4.19895831
C        5.03304266      -4.84687691       3.72884861
H        2.49010742      -0.28024315       3.18559604
H        3.83240323      -2.22558890       4.37116988
H        1.20320942      -5.36560456       2.56214518
H       -3.37445409      -5.62858256      -0.13148797
H       -5.94326787      -8.56277649       1.70516096
H       -4.07796533      -9.33977848       3.11003293
H        5.07860724      -4.44443213       4.74473990
H        5.63173865      -4.21853198       3.06296903
H        5.45634857      -5.85566373       3.73308170
C       -5.86751117      -6.61056404      -0.11953292
C       -6.78438281      -6.23831676      -0.80889084
Br      -8.26688672      -5.63642439      -1.92352430
C       -0.00445707       0.01189536      -1.78238275
H       -0.66409135       0.67374010      -2.43557963
H        0.65740317      -0.63156657      -2.45157240
C       -0.90989263      -0.90692880      -0.91072765
C        0.90977584       0.90977584      -0.90977584
C       -0.00465871       1.77757030       0.00794375
H       -0.66225468       2.44313916      -0.64384735
H        0.64322798       2.43503045       0.67728295
C       -1.78241447       0.00034974      -0.00472694
H       -2.45427497      -0.65498947       0.64260836
H       -2.43311707       0.67328779      -0.65473579
C       -0.91132561       0.90220522       0.91563759
C       -0.01476271      -0.02253852       1.78660255
H       -0.67934791      -0.69751639       2.42135241
H        0.63392994       0.61504881       2.47327442
C        0.01484550      -1.77751727      -0.01636693
H        0.67870853      -2.42144646      -0.68295456
H       -0.62264859      -2.45592969       0.64226336
C        1.78714474       0.01002794       0.00389507
H        2.44202412       0.67113390       0.66197326
H        2.45385902      -0.65136977      -0.64189061
C        0.91606151      -0.90478549       0.90901405
