130
Properties=species:S:1:pos:R:3 pbc="F F F"
C        1.82606742       1.82606742      -1.82606742
C        3.07957992       2.23521599      -1.06277661
N        3.95974464       3.07474163      -1.89839322
C        4.95036575       2.35199567      -2.71748130
C        6.37355029       2.71094177      -2.30333255
C        3.68880245       4.42597507      -2.10389234
C        4.20338246       5.13943707      -3.20212806
C        3.95844073       6.50618048      -3.39509264
C        3.18601678       7.21193142      -2.48448043
C        2.65782393       6.54514857      -1.38880796
C        2.90585292       5.17703781      -1.20766653
H        1.21601619       2.68236602      -2.12064488
H        2.06605008       1.23507216      -2.71393464
H        3.62843268       1.33610380      -0.75226277
H        2.82865073       2.72531176      -0.11586519
H        4.77796607       2.52182895      -3.78669574
H        4.81610388       1.26960066      -2.59100864
H        6.56434303       2.46838891      -1.25319130
H        6.61331800       3.76460194      -2.47167375
H        4.81064559       4.65042562      -3.95724641
H        4.37883497       7.01329296      -4.26028949
H        3.00027024       8.27274167      -2.62574177
H        2.05720732       7.08513600      -0.66153417
H        2.48232664       4.72733888      -0.31565670
C        7.31682212       1.95288759      -3.08384016
C        8.10681227       1.31801722      -3.73751528
Br       9.38415954       0.29148552      -4.79445266
C       -1.82606742      -1.82606742      -1.82606742
C       -3.28943048      -1.64613379      -1.44200825
N       -4.16700798      -2.47455828      -2.29131323
C       -4.63627853      -1.84435983      -3.53920435
C       -6.15373726      -1.69228103      -3.54180632
C       -4.31380632      -3.84132156      -2.06354197
C       -4.75271956      -4.72921352      -3.06301452
C       -4.93138143      -6.09974084      -2.82859157
C       -4.67787390      -6.63164857      -1.57290616
C       -4.24124421      -5.79050976      -0.56002649
C       -4.06209608      -4.42187165      -0.80658953
H       -1.47913587      -2.85208326      -1.68780797
H       -1.63659071      -1.52009362      -2.85837255
H       -3.57026849      -0.59057391      -1.55595685
H       -3.45003284      -1.84322638      -0.37656846
H       -4.27635585      -2.39228477      -4.41785014
H       -4.18870285      -0.84691565      -3.64109468
H       -6.50196106      -1.07977755      -2.70418464
H       -6.67809773      -2.65175295      -3.51974301
H       -4.96417338      -4.38403363      -4.07011062
H       -5.27280925      -6.74542135      -3.63418683
H       -4.82258733      -7.69154553      -1.38462081
H       -4.04587697      -6.18977631       0.43177579
H       -3.74314415      -3.82056487       0.03838679
C       -6.57749537      -1.02860828      -4.74744621
C       -6.93239279      -0.47278235      -5.75716962
Br      -7.50623190       0.42594116      -7.38980698
C       -1.82606742       1.82606742       1.82606742
C       -1.42779950       1.66224906       3.28752396
N       -2.25325775       2.51772002       4.16190172
C       -1.74308203       3.88148483       4.39527585
C       -1.41700514       4.10218683       5.86863264
C       -3.55148357       2.15372880       4.51345749
C       -4.50639996       3.09215543       4.94639220
C       -5.80374172       2.72538673       5.33058540
C       -6.19100607       1.39389461       5.29752794
C       -5.28007549       0.43712724       4.87457773
C       -3.98625355       0.81556210       4.48874161
H       -2.85819144       1.52465839       1.63617726
H       -1.68329030       2.85284775       1.47891884
H       -0.37107908       1.93443791       3.41128226
H       -1.46238289       0.61171798       3.59572681
H       -2.44041438       4.63505174       4.01102463
H       -0.82680512       4.03882500       3.81108306
H       -0.66288436       3.39497835       6.22806054
H       -2.29750482       4.03799036       6.51409850
H       -4.27500869       4.15164245       4.99166649
H       -6.50597645       3.48829662       5.65814436
H       -7.19261891       1.10423351       5.60190125
H       -5.56485492      -0.61147893       4.85050150
H       -3.31988013       0.01168758       4.19375452
C       -0.87359777       5.42224752       6.05770457
C       -0.41849410       6.52779835       6.21605232
Br       0.31737005       8.31538054       6.47208723
C        1.82606742      -1.82606742       1.82606742
C        1.27268741      -1.85968073       3.24520438
N        2.09662863      -2.72009392       4.11615694
C        1.71578984      -4.14404479       4.16000809
C        1.27401862      -4.55240813       5.56139786
C        3.30796950      -2.27185327       4.63884709
C        4.31172309      -3.15434598       5.07887852
C        5.51872623      -2.70695101       5.63403661
C        5.76199517      -1.34838196       5.77205149
C        4.79882458      -0.44455021       5.34840567
C        3.59671747      -0.90297059       4.79086920
H        2.83333310      -1.40735037       1.77834363
H        1.82882080      -2.81856123       1.36767485
H        0.24435547      -2.24476167       3.22768211
H        1.16410297      -0.84999019       3.65573452
H        2.52403374      -4.78076039       3.78169663
H        0.88271780      -4.32577237       3.46822301
H        0.41697427      -3.96440046       5.90454851
H        2.07576140      -4.47289825       6.30093403
H        4.19226323      -4.22997512       4.99607928
H        6.26381029      -3.42894806       5.95965907
H        6.69241159      -0.99737557       6.20896650
H        4.97022456       0.62321047       5.45686339
H        2.87955566      -0.14046452       4.50530204
C        0.85989586      -5.93157523       5.56207878
C        0.51306804      -7.08662767       5.56264905
Br      -0.04772320      -8.95424978       5.56357114
C       -0.00445707       0.01189536      -1.78238275
H       -0.66409135       0.67374010      -2.43557963
H        0.65740317      -0.63156657      -2.45157240
C       -0.90989263      -0.90692880      -0.91072765
C        0.90977584       0.90977584      -0.90977584
C       -0.00465871       1.77757030       0.00794375
H       -0.66225468       2.44313916      -0.64384735
H        0.64322798       2.43503045       0.67728295
C       -1.78241447       0.00034974      -0.00472694
H       -2.45427497      -0.65498947       0.64260836
H       -2.43311707       0.67328779      -0.65473579
C       -0.91132561       0.90220522       0.91563759
C       -0.01476271      -0.02253852       1.78660255
H       -0.67934791      -0.69751639       2.42135241
H        0.63392994       0.61504881       2.47327442
C        0.01484550      -1.77751727      -0.01636693
H        0.67870853      -2.42144646      -0.68295456
H       -0.62264859      -2.45592969       0.64226336
C        1.78714474       0.01002794       0.00389507
H        2.44202412       0.67113390       0.66197326
H        2.45385902      -0.65136977      -0.64189061
C        0.91606151      -0.90478549       0.90901405
