101
Properties=species:S:1:pos:R:3 pbc="F F F"
C        0.00000000       0.00000000       0.00000000
C        0.91616340       0.91616340      -0.91616340
C        2.16967589       1.32531197      -0.15287258
N        3.04984061       2.16483761      -0.98848920
C        4.04046172       1.44209164      -1.80757728
C        5.46364626       1.80103775      -1.39342853
Br       6.74007171       0.77524686      -2.44960315
C        2.77889843       3.51607105      -1.19398831
C        3.29347844       4.22953304      -2.29222404
C        3.04853671       5.59627646      -2.48518861
C        2.27611275       6.30202739      -1.57457640
C        1.74791990       5.63524455      -0.47890394
C        1.99594889       4.26713378      -0.29776250
H        0.30611217       1.77246199      -1.21074086
H        1.15614606       0.32516813      -1.80403062
H        2.71852866       0.42619977       0.15764126
H        1.91874671       1.81540774       0.79403884
H        3.86806204       1.61192493      -2.87679171
H        3.90619985       0.35969664      -1.68110462
H        5.65443901       1.55848489      -0.34328728
H        5.70341398       2.85469791      -1.56176972
H        3.90074157       3.74052160      -3.04734239
H        3.46893094       6.10338894      -3.35038547
H        2.09036621       7.36283764      -1.71583774
H        1.14730330       6.17523197       0.24836986
H        1.57242262       3.81743485       0.59424732
C       -0.91616340      -0.91616340      -0.91616340
C       -1.98919672      -0.06945389      -1.58920983
N       -2.84618962      -0.89436034      -2.46261746
C       -2.38917221      -1.04434013      -3.85661830
C       -3.39053366      -0.43522191      -4.83235698
Br      -2.71897403      -0.59102470      -6.65492299
C       -3.85922409      -1.69332212      -1.93641158
C       -4.38635718      -2.79735996      -2.63151839
C       -5.42686710      -3.58446895      -2.11866572
C       -5.98229451      -3.28759859      -0.88282344
C       -5.48969314      -2.20837675      -0.16399851
C       -4.44597432      -1.43018077      -0.68469009
H       -1.33603105      -1.68677631      -0.26650767
H       -0.25241032      -1.38631787      -1.64661662
H       -1.51168824       0.71545103      -2.19084996
H       -2.57678306       0.48989000      -0.85322255
H       -2.17293363      -2.09329194      -4.09055312
H       -1.42549621      -0.53450667      -3.98699823
H       -3.54548005       0.63148776      -4.64221889
H       -4.36013925      -0.94089909      -4.81884326
H       -3.99631869      -3.09151878      -3.60076809
H       -5.80024571      -4.42793487      -2.69452478
H       -6.79400399      -3.88989082      -0.48514678
H       -5.91920998      -1.95723758       0.80228214
H       -4.12882230      -0.58733784      -0.07945001
C       -0.91616340       0.91616340       0.91616340
C       -0.40112269       0.89681437       2.34992338
N       -1.22537889       1.75594890       3.22183962
C       -0.80809348       3.16727277       3.31476439
C       -0.39411381       3.52592703       4.73807170
Br       0.21554352       5.37548226       4.80498299
C       -2.46207645       1.32725946       3.69962188
C       -3.45363481       2.22485427       4.13674644
C       -4.68686368       1.79602648       4.64711162
C       -4.96991454       0.44142885       4.74137315
C       -4.01992626      -0.47681539       4.31895752
C       -2.79123113      -0.03677292       3.80638697
H       -1.93254040       0.52658393       0.83019069
H       -0.87993886       1.92021716       0.48518879
H        0.63719466       1.25394354       2.37033829
H       -0.33074173      -0.12604464       2.73541853
H       -1.58843873       3.83571512       2.93262484
H        0.04813988       3.34449737       2.65064361
H        0.43725562       2.90575823       5.08770856
H       -1.21762497       3.44871658       5.45354006
H       -3.30334914       3.29863547       4.08662094
H       -5.42108515       2.52921193       4.97240827
H       -5.92095586       0.10450045       5.14358529
H       -4.22260668      -1.54199603       4.39355476
H       -2.08708644      -0.81074062       3.51926434
C        0.91616340      -0.91616340       0.91616340
C        0.11011634      -2.09854844       1.43919566
N        0.94350567      -2.97835399       2.28130775
C        1.66318439      -4.05340266       1.57354359
C        1.19287231      -5.42804931       2.03719092
Br       2.11543959      -6.81851546       1.03096668
C        1.24211012      -2.64579965       3.60104802
C        2.35006627      -3.18347007       4.28169918
C        2.63564845      -2.87524615       5.61910718
C        1.81172299      -2.01328765       6.32770590
C        0.70979553      -1.45962505       5.69264781
C        0.43574841      -1.77169144       4.35340533
H        1.29337350      -0.27807031       1.71787121
H        1.75345886      -1.23974633       0.29213962
H       -0.28210353      -2.67707047       0.59212024
H       -0.79131627      -1.76617075       1.96526113
H        2.74836013      -3.93457951       1.67383904
H        1.48136980      -3.97185328       0.49377802
H        0.12145179      -5.57032703       1.86443235
H        1.40892875      -5.61879067       3.09216220
H        3.04074783      -3.85978263       3.78807510
H        3.50446972      -3.31681181       6.10142381
H        2.02465707      -1.77791349       7.36647104
H        0.04947644      -0.78875248       6.23593650
H       -0.45627704      -1.32227504       3.92961214
