157
Properties=species:S:1:pos:R:3 pbc="F F F"
C        0.00000000       0.00000000       0.00000000
C        0.92073884       0.92073884      -0.92073884
C        0.50615789       2.39238755      -0.81688574
H        0.37804472       2.65813310       0.24086639
C        1.64512992       3.28112679      -1.37960510
H        2.55490092       3.06471822      -0.80492565
C        1.39120735       4.78514278      -1.33331900
C        1.02838542       5.13544956      -2.75459855
C        1.81248168       4.12262796      -3.55635804
O        1.92556493       2.94145728      -2.75204536
C       -0.74134383       2.61748202      -1.50841534
C       -1.76954621       2.80300624      -2.07839245
C       -3.07787823       3.09954296      -2.80620547
C       -4.08377104       3.37057188      -3.40568907
C       -5.29648372       3.74219275      -4.16637647
H       -6.14662855       3.17981383      -3.75793258
C       -5.16821173       3.37665434      -5.66470252
H       -6.09410194       3.68580861      -6.16661018
C       -4.92962524       1.89919094      -5.96055609
C       -3.46182793       1.83014913      -6.29910355
C       -3.19973716       3.18653192      -6.91126684
O       -4.09247426       4.11274117      -6.27892485
C       -5.56283058       5.24451359      -4.03016781
Br      -6.23222858       5.67782003      -2.24232972
H        0.83964410       0.51926157      -1.93589229
H        1.93662107       0.75741995      -0.54815646
H        2.32481840       5.29803417      -1.06945121
H        0.63822818       5.08864923      -0.60033531
H       -0.04509120       4.99893745      -2.91842624
H        1.27220113       6.16697422      -3.02350014
H        1.32662924       3.87414873      -4.50432566
H        2.82453403       4.48322588      -3.76752318
H       -5.51225175       1.61251925      -6.84530607
H       -5.22494915       1.22796666      -5.14902305
H       -2.86776710       1.70450277      -5.38846890
H       -3.20995036       1.00649474      -6.97278880
H       -2.16711979       3.51738082      -6.76805911
H       -3.42062548       3.18598366      -7.98374785
H       -4.66839332       5.85713808      -4.18054734
H       -6.35078254       5.58133367      -4.71053622
C       -0.92073884      -0.92073884      -0.92073884
C       -0.94958067      -2.36281003      -0.40304048
H       -1.12241369      -2.35425981       0.68136207
C       -2.14181800      -3.11123056      -1.05281324
H       -3.05897296      -2.56229411      -0.80327772
C       -2.31832941      -4.56558529      -0.62575444
C       -1.77398821      -5.35402628      -1.79041903
C       -2.06994061      -4.45394840      -2.96757867
O       -2.02629528      -3.10322600      -2.48954630
C        0.30714872      -3.02216881      -0.66953344
C        1.34295935      -3.56562094      -0.88919089
C        2.64520450      -4.31465489      -1.15841980
C        3.64317613      -4.94175443      -1.39391161
C        4.84219284      -5.75019070      -1.70408764
H        5.70729503      -5.28960030      -1.20881259
C        5.13408245      -5.78368895      -3.22353862
H        6.02613802      -6.40355575      -3.38089913
C        5.37013524      -4.42478676      -3.87547027
C        4.08008245      -4.14365569      -4.60385151
C        3.59631564      -5.52865789      -4.96571935
O        4.05322441      -6.41576331      -3.93665286
C        4.65897699      -7.18131225      -1.18951556
Br       4.79677164      -7.24682623       0.76213342
H       -0.52360154      -0.83405927      -1.93713714
H       -1.90960116      -0.45395576      -0.87864056
H       -3.38939244      -4.78092239      -0.52198895
H       -1.84598627      -4.81099531       0.32976886
H       -0.69389398      -5.49478269      -1.68359582
H       -2.22491217      -6.34497840      -1.89278493
H       -1.34769212      -4.57775809      -3.77965343
H       -3.07415203      -4.63777737      -3.36335369
H        6.18039460      -4.51593036      -4.61003780
H        5.65865279      -3.63698303      -3.17371031
H        3.36481259      -3.65559741      -3.93441975
H        4.20653530      -3.49835101      -5.47751747
H        2.50655269      -5.58467928      -5.04019355
H        4.02876710      -5.86355705      -5.91431608
H        3.68463244      -7.61027605      -1.44364850
H        5.45131305      -7.84639617      -1.54600423
C       -0.92073884       0.92073884       0.92073884
C       -1.47644308       0.12939348       2.10959462
H       -0.66287717      -0.44268346       2.57511771
C       -2.00893986       1.12182880       3.17509314
H       -1.17952290       1.77944506       3.46557683
C       -2.58612532       0.48666395       4.43687987
C       -4.07834844       0.59355766       4.24652743
C       -4.21820024       1.85179436       3.42147308
O       -3.03671102       1.96474659       2.61760997
C       -2.50128682      -0.78913955       1.67240626
C       -3.34598295      -1.54619828       1.31206782
C       -4.44529821      -2.52431554       0.90688752
C       -5.34194227      -3.27286794       0.62341558
C       -6.47330623      -4.17306805       0.31184732
H       -6.12327509      -4.93586578      -0.39629144
C       -7.64358587      -3.41305297      -0.35738778
H       -8.44628246      -4.13592958      -0.55203602
C       -7.30299528      -2.70682545      -1.66604804
C       -7.19794291      -1.25384071      -1.27667745
C       -8.17456900      -1.14795899      -0.12854841
O       -8.18245910      -2.41843731       0.53516997
C       -6.97280636      -4.85191498       1.59095944
Br      -5.70972861      -6.21910330       2.19729587
H       -1.70085834       1.32568188       0.26825774
H       -0.26366837       1.73352139       1.24500772
H       -2.29591796       1.08992852       5.30645730
H       -2.23905344      -0.53392397       4.62208324
H       -4.45387157      -0.26929849       3.68769940
H       -4.63389391       0.64158419       5.18719739
H       -5.09986251       1.83081410       2.77442702
H       -4.27581975       2.73921964       4.06024371
H       -8.13936493      -2.82750036      -2.36629101
H       -6.40865354      -3.09392645      -2.16268653
H       -6.18403733      -1.02515625      -0.93367651
H       -7.43142449      -0.56712105      -2.09497026
H       -7.89947300      -0.36459087       0.58343801
H       -9.18952387      -0.95113046      -0.48928738
H       -7.09932774      -4.15743127       2.42739564
H       -7.90912206      -5.39327053       1.42523584
C        0.92073884      -0.92073884       0.92073884
C        1.78205280      -0.07161150       1.86176688
H        1.15303721       0.69355410       2.33582832
C        2.33896021      -0.97432576       2.99257583
H        1.48477043      -1.43000902       3.50976534
C        3.21091926      -0.27039101       4.02835886
C        4.61635323      -0.65879899       3.64328130
C        4.42698461      -2.02917766       3.03530541
O        3.12128809      -2.05360095       2.44417854
C        2.83953736       0.58324479       1.12826096
C        3.71113475       1.12297648       0.52369422
C        4.85537737       1.82775850      -0.19974868
C        5.78955179       2.36150469      -0.73555719
C        6.96972264       2.99854561      -1.35909153
H        6.61844750       3.69838868      -2.12894096
C        7.88379149       1.95921831      -2.05142806
H        8.73795428       2.49707311      -2.48256431
C        7.22389212       1.13854222      -3.15522811
C        6.97619641      -0.20205701      -2.51082867
C        8.10950673      -0.30532455      -1.51676969
O        8.41687010       1.02801871      -1.08965962
C        7.77535772       3.76091910      -0.30258780
Br       6.84877562       5.39853111       0.23767667
H        1.50945553      -1.54464282       0.24069960
H        0.21759167      -1.55227390       1.47233191
H        2.98950842      -0.68119326       5.02160210
H        3.05372205       0.81060014       4.08409081
H        5.01221216       0.03563987       2.89570020
H        5.31223250      -0.66364176       4.48680124
H        5.17778525      -2.25479293       2.27252545
H        4.46325520      -2.81031530       3.80171260
H        7.93598939       1.01006478      -3.98035105
H        6.32379752       1.59681732      -3.57493964
H        6.01396214      -0.20048363      -1.98924120
H        6.96270077      -1.03075175      -3.22411934
H        7.84942178      -0.91720859      -0.64831023
H        9.00755058      -0.72421622      -1.98266076
H        7.94091337       3.18478610       0.61316484
H        8.73814826       4.10319235      -0.69386855
