178
Properties=species:S:1:pos:R:3 pbc="F F F"
C        1.83491797       1.83491797      -1.83491797
H        2.42875851       2.40630573      -1.11156436
C        0.94850018       2.75631746      -2.64009047
C        1.01534293       4.14175043      -2.43438029
C        0.21742409       5.01584025      -3.18113884
C       -0.63418312       4.53447210      -4.17580494
C       -0.75060495       3.15398640      -4.33926126
C        0.04806333       2.27418035      -3.60122918
N       -1.52086928       5.40003921      -4.82659102
C        2.76446887       0.94029139      -2.66639505
C        3.83916750       1.76294634      -3.39873227
C        4.81848608       0.90514731      -4.21386039
H        4.26293562       0.13379791      -4.76018200
C        5.69534736       1.68181578      -5.17368466
C        6.18900665       2.96011090      -4.87664123
C        7.00834390       3.64293935      -5.78149135
C        7.33186256       3.08361004      -7.01790574
C        6.90905515       1.78139527      -7.28630192
C        6.08434508       1.09461623      -6.38784024
N        8.25224670       3.71672599      -7.85949871
H        1.67979050       4.55827660      -1.68014699
H        0.26779277       6.08192850      -2.97489858
H       -1.46956153       2.74617746      -5.04478646
H       -0.06326956       1.20532973      -3.76931169
H       -1.86584889       5.04212811      -5.71146404
H       -1.17984493       6.35284443      -4.90398169
H        3.25215215       0.21973685      -1.99933042
H        2.19658088       0.34834342      -3.39469492
H        4.37651762       2.37388747      -2.66230493
H        3.33730677       2.46059030      -4.08160513
H        5.96422531       3.43979340      -3.92694438
H        7.39895548       4.61859317      -5.50558796
H        7.22246786       1.28339132      -8.20078427
H        5.76726656       0.08384344      -6.63832021
H        8.19213868       3.41877791      -8.82855093
H        8.25793042       4.72844320      -7.76935784
C        5.69758050       0.18865636      -3.32648577
C        6.43382208      -0.41140480      -2.58330952
Br       7.62426244      -1.38165295      -1.38165638
C       -1.83491797      -1.83491797      -1.83491797
H       -2.18440148      -2.61458619      -1.14764092
C       -0.98194004      -2.43440435      -2.92856372
C       -0.78967489      -3.82244753      -2.97935122
C       -0.01895076      -4.40193345      -3.99351896
C        0.54353893      -3.61825928      -5.00137357
C        0.40806776      -2.23234054      -4.91836992
C       -0.36592610      -1.64607902      -3.91146774
N        1.41703316      -4.18790280      -5.93489131
C       -3.03350687      -1.01156243      -2.32608602
C       -4.08349594      -1.89588628      -3.02146390
C       -5.32144878      -1.12017438      -3.49587062
H       -5.00728091      -0.18176967      -3.96786495
C       -6.22971434      -1.88683325      -4.43430021
C       -6.45090275      -3.26573783      -4.30911819
C       -7.30784768      -3.93926598      -5.18566094
C       -7.94231242      -3.26307424      -6.22799169
C       -7.78818643      -1.87883106      -6.30973485
C       -6.92785800      -1.19945521      -5.43948833
N       -8.89314235      -3.91739743      -7.01793162
H       -1.22620014      -4.47014742      -2.22186653
H        0.13905454      -5.47738603      -3.98628837
H        0.90797492      -1.59050912      -5.63886819
H       -0.45808659      -0.56248891      -3.89079636
H        1.52851674      -3.63655915      -6.77970085
H        1.22204299      -5.16353877      -6.13548541
H       -3.49428850      -0.50996782      -1.46696309
H       -2.71335306      -0.21606780      -3.01019836
H       -4.36952327      -2.70532662      -2.33786012
H       -3.61555652      -2.37011168      -3.89383400
H       -5.97866701      -3.83811457      -3.51418151
H       -7.48081700      -5.00206389      -5.04025573
H       -8.34260184      -1.31092377      -7.05311785
H       -6.82692202      -0.12045858      -5.54204961
H       -9.06420632      -3.46452802      -7.91073319
H       -8.72223821      -4.91343528      -7.12005798
C       -6.11956282      -0.73090399      -2.36225582
C       -6.78798334      -0.40489005      -1.41285341
Br      -7.86876278       0.12224693       0.12224997
C       -1.83491797       1.83491797       1.83491797
H       -1.14764072       2.18440216       2.61458571
C       -2.92856304       0.98193981       2.43440525
C       -2.97934981       0.78967528       3.82244855
C       -3.99351692       0.01895095       4.40193530
C       -5.00137163      -0.54353958       3.61826186
C       -4.91836870      -0.40806901       2.23234302
C       -3.91146715       0.36592505       1.64608067
N       -5.93488871      -1.41703397       4.18790622
C       -2.32608696       3.03350625       1.01156210
C       -3.02146492       4.08349542       1.89588578
C       -3.49587258       5.32144767       1.12017353
H       -3.96786720       5.00727915       0.18176918
C       -4.43430223       6.22971316       1.88683241
C       -4.30911968       6.45090227       3.26573683
C       -5.18566251       7.30784710       3.93926499
C       -6.22799386       7.94231104       3.26307344
C       -6.30973760       7.78818437       1.87883038
C       -5.43949100       6.92785603       1.19945452
N       -7.01793394       8.89314090       3.91739656
H       -2.22186502       1.22620119       4.47014788
H       -3.98628575      -0.13905385       5.47738795
H       -5.63886703      -0.90797680       1.59051216
H       -3.89079631       0.45808504       0.56249050
H       -6.77969845      -1.52851820       3.63656301
H       -6.13548244      -1.22204344       5.16354220
H       -1.46696448       3.49428805       0.50996688
H       -3.01019952       2.71335176       0.21606793
H       -2.33786090       4.36952345       2.70532567
H       -3.89383458       3.61555581       2.37011181
H       -3.51418250       5.97866716       3.83811342
H       -5.04025688       7.48081698       5.00206275
H       -7.05312112       8.34259917       1.31092317
H       -5.54205273       6.82691950       0.12045798
H       -7.91073579       9.06420425       3.46452748
H       -7.12005975       8.72223718       4.91343453
C       -2.36225832       6.11956206       0.73090224
C       -1.41285638       6.78798287       0.40488755
Br       0.12224626       7.86876278      -0.12225065
C        1.83491797      -1.83491797       1.83491797
H        2.58706593      -1.13732871       2.22223396
C        2.48455613      -2.89008181       0.97027017
C        3.87792018      -2.90026144       0.81329202
C        4.50337872      -3.87867302       0.03235143
C        3.76109901      -4.89113204      -0.57613713
C        2.37046532      -4.84721185      -0.47503446
C        1.73834288      -3.87632023       0.30880975
N        4.37723364      -5.78650047      -1.45797315
C        0.99434183      -2.37830892       2.99850457
C        1.86946312      -3.07816516       4.05321785
C        1.07505090      -3.60462063       5.25782225
H        0.15771492      -4.09206206       4.90713855
C        1.84259729      -4.54665403       6.16159649
C        3.21162558      -4.39207590       6.42205730
C        3.88579185      -5.27329960       7.27368315
C        3.22119448      -6.34889925       7.86328462
C        1.84397394      -6.46196579       7.67081261
C        1.16421587      -5.58709488       6.81549080
N        3.87149128      -7.14653582       8.81044430
H        4.49411691      -2.13817537       1.28592181
H        5.58196177      -3.83977346      -0.09711537
H        1.76078376      -5.57052143      -1.00990280
H        0.65258008      -3.88581539       0.37297639
H        3.85130325      -6.64192397      -1.60548396
H        5.35249169      -5.96711195      -1.24262245
H        0.45872679      -1.54470366       3.46778897
H        0.22554436      -3.07391100       2.64016386
H        2.65308366      -2.38181804       4.37780831
H        2.37825849      -3.92552113       3.57572258
H        3.77482380      -3.57062180       5.98551748
H        4.93962899      -5.10533541       7.47817222
H        1.28178488      -7.23394497       8.19091360
H        0.09122206      -5.71455051       6.68365765
H        3.43799827      -8.05482005       8.94664920
H        4.87391543      -7.21861330       8.66320273
C        0.63584164      -2.50269360       6.07418739
C        0.26800388      -1.57982972       6.75789320
Br      -0.32675865      -0.08763686       7.86338767
C       -0.00445707       0.01189536      -1.78238275
H       -0.66409135       0.67374010      -2.43557963
H        0.65740317      -0.63156657      -2.45157240
C       -0.90989263      -0.90692880      -0.91072765
C        0.90977584       0.90977584      -0.90977584
C       -0.00465871       1.77757030       0.00794375
H       -0.66225468       2.44313916      -0.64384735
H        0.64322798       2.43503045       0.67728295
C       -1.78241447       0.00034974      -0.00472694
H       -2.45427497      -0.65498947       0.64260836
H       -2.43311707       0.67328779      -0.65473579
C       -0.91132561       0.90220522       0.91563759
C       -0.01476271      -0.02253852       1.78660255
H       -0.67934791      -0.69751639       2.42135241
H        0.63392994       0.61504881       2.47327442
C        0.01484550      -1.77751727      -0.01636693
H        0.67870853      -2.42144646      -0.68295456
H       -0.62264859      -2.45592969       0.64226336
C        1.78714474       0.01002794       0.00389507
H        2.44202412       0.67113390       0.66197326
H        2.45385902      -0.65136977      -0.64189061
C        0.91606151      -0.90478549       0.90901405
