178
Properties=species:S:1:pos:R:3 pbc="F F F"
C        1.83068649       1.83068649      -1.83068649
C        3.18629752       2.10795575      -1.15650335
H        2.94362172       2.41290253      -0.12674806
C        3.90331122       3.35045605      -1.80261145
H        3.15082805       4.15415857      -1.82507958
C        4.33417893       3.13585298      -3.25258386
C        5.58889692       2.61235179      -3.59603587
C        5.92852293       2.37408775      -4.93223341
C        5.04837423       2.69730621      -5.96324671
C        3.78378972       3.18022954      -5.62783978
C        3.43801911       3.42261831      -4.29338796
N        5.33593280       2.32029419      -7.28057738
C        5.01992199       3.86589706      -0.87536322
C        4.06404571       0.86303841      -1.04448415
C        4.29791440       0.01280050      -2.13442959
C        5.11380174      -1.11519118      -2.00622266
C        5.66505391      -1.46065736      -0.77418976
C        5.47772356      -0.59400002       0.30289607
C        4.67203720       0.54413129       0.17819305
N        6.57231657      -2.52313766      -0.67997604
H        1.25257067       2.75144356      -1.95569743
H        1.90197780       1.32306295      -2.79504403
H        6.31268529       2.33456442      -2.83338140
H        6.89136307       1.92186591      -5.15524165
H        3.04973827       3.37219931      -6.40617000
H        2.44896550       3.82189612      -4.08012480
H        4.82772719       2.85647507      -7.97663288
H        6.33070927       2.28153737      -7.48103989
H        4.66026559       3.97523646       0.15288793
H        5.91943230       3.24658414      -0.86410591
H        3.87470644       0.22458653      -3.11401955
H        5.30854251      -1.72428730      -2.88485125
H        5.95550609      -0.79964120       1.25722440
H        4.52868818       1.17684820       1.05136590
H        6.65327040      -2.90344718       0.25781970
H        6.41311357      -3.24990488      -1.37127850
C        5.43626755       5.19297249      -1.24836077
C        5.78495696       6.30439816      -1.56074621
Br       6.34875825       8.10147947      -2.06584706
C       -1.83068649      -1.83068649      -1.83068649
C       -1.26278188      -1.93016876      -3.25780598
H       -1.03430687      -0.89470171      -3.55426373
C       -2.35581377      -2.42503698      -4.27552796
H       -3.23843346      -1.78984343      -4.10178930
C       -2.81833816      -3.86227663      -4.04200098
C       -2.19102657      -4.96270776      -4.64355025
C       -2.60356413      -6.26957923      -4.36170072
C       -3.68250794      -6.51261760      -3.51380161
C       -4.28526758      -5.42613824      -2.88045322
C       -3.87884572      -4.11608121      -3.15909845
N       -3.99234014      -7.82098950      -3.12347474
C       -1.91700201      -2.12340187      -5.72077839
C        0.05415270      -2.70088226      -3.32483872
C        0.22016866      -3.95166700      -2.71364615
C        1.43407116      -4.63987048      -2.79903390
C        2.53285946      -4.07150738      -3.43993840
C        2.36184321      -2.85028944      -4.09238124
C        1.14504522      -2.16152042      -4.02150024
N        3.70612773      -4.81411285      -3.62116983
H       -2.80453400      -1.33147566      -1.82370200
H       -1.91927319      -2.78808757      -1.31272401
H       -1.33943845      -4.83369217      -5.30750048
H       -2.06096463      -7.09809676      -4.80940923
H       -5.08086567      -5.58922160      -2.15802030
H       -4.39323572      -3.29811160      -2.65963910
H       -4.94377872      -7.92995530      -2.78710111
H       -3.75309515      -8.51779303      -3.82239835
H       -1.57240779      -1.08909249      -5.82111384
H       -1.13889481      -2.78690624      -6.10432130
H       -0.59920214      -4.43147407      -2.18263631
H        1.50981890      -5.62729340      -2.35163196
H        3.18027651      -2.41731759      -4.66159941
H        1.06408656      -1.19812782      -4.52012921
H        4.52765744      -4.23930886      -3.78035210
H        3.86163962      -5.50393070      -2.89219612
C       -3.02715019      -2.21734211      -6.63310851
C       -3.95689929      -2.29601707      -7.39718498
Br      -5.46022496      -2.42322782      -8.63263201
C       -1.83068649       1.83068649       1.83068649
C       -3.29858687       1.37028531       1.78188444
H       -3.52902106       1.24125998       0.71299128
C       -4.27001274       2.50075576       2.28561021
H       -3.98372283       3.41078545       1.73555791
C       -4.11658436       2.83831667       3.76771474
C       -4.84610170       2.18186595       4.76931693
C       -4.63806244       2.47539156       6.12139008
C       -3.73583095       3.46436255       6.50873365
C       -2.97756338       4.09290663       5.52138903
C       -3.18172482       3.80544234       4.16685823
N       -3.42748706       3.64718495       7.86213237
C       -5.71525887       2.19917963       1.84674376
C       -3.52081861       0.01026181       2.44048786
C       -3.02283004      -0.29313844       3.71545288
C       -3.24940525      -1.54330662       4.29873459
C       -3.92184484      -2.54461700       3.60135848
C       -4.46279641      -2.23516406       2.35319513
C       -4.25039153      -0.98094273       1.76852664
N       -4.24502506      -3.75083548       4.23496537
H       -1.71421700       2.83460230       1.41089236
H       -1.38404109       1.80897077       2.82707290
H       -5.55787166       1.39633026       4.52642918
H       -5.18723906       1.91084694       6.87038462
H       -2.21435963       4.81573526       5.79801268
H       -2.58395877       4.33713161       3.42989603
H       -3.03263221       4.55904319       8.06915973
H       -4.19419075       3.41343135       8.48566443
H       -5.75918684       1.93929214       0.78413514
H       -6.20480159       1.40740594       2.41791482
H       -2.47297890       0.44534203       4.29499158
H       -2.88716576      -1.72508435       5.30702505
H       -5.05422904      -2.97311977       1.81753121
H       -4.66506629      -0.79172258       0.78082677
H       -4.41790002      -4.51362725       3.58773076
H       -3.58534571      -4.01236437       4.96150586
C       -6.54933506       3.36747317       1.96079259
C       -7.24787386       4.34591900       2.05630848
Br      -8.37735202       5.92798317       2.21074960
C        1.83068649      -1.83068649       1.83068649
C        0.98624898      -2.60904585       2.85546179
H        0.31350806      -1.86323333       3.30653093
C        1.87308830      -3.14302963       4.04026078
H        2.46187650      -2.27994745       4.38824224
C        2.88865407      -4.20696566       3.62699604
C        2.58881634      -5.57678514       3.63168310
C        3.52356315      -6.52006487       3.19121607
C        4.79725140      -6.12904604       2.78262970
C        5.08901600      -4.76608760       2.73675545
C        4.15933888      -3.81714955       3.17753695
N        5.67022155      -7.05986925       2.20671358
C        0.98669422      -3.53822935       5.23625870
C        0.09174573      -3.66712380       2.21269874
C        0.57941240      -4.58950368       1.27622840
C       -0.25976232      -5.55402172       0.71057382
C       -1.61918076      -5.58347475       1.01429233
C       -2.10216844      -4.70159136       1.98140455
C       -1.26448483      -3.74128889       2.56117137
N       -2.42715136      -6.62171295       0.53459336
H        2.50760234      -1.12708534       2.32502398
H        2.40854891      -2.46058956       1.15094630
H        1.60866722      -5.93912476       3.93283912
H        3.23684086      -7.56807424       3.16355552
H        6.04788535      -4.42669728       2.35352494
H        4.43874583      -2.76640811       3.14583248
H        6.64452069      -6.77712764       2.23918681
H        5.53618270      -8.00561177       2.55149205
H        0.26338273      -2.75007494       5.46915646
H        0.44569600      -4.47804190       5.10638445
H        1.62837224      -4.59712132       0.98781896
H        0.16498040      -6.28079567       0.02333040
H       -3.14271770      -4.74971429       2.29164389
H       -1.68909972      -3.05381678       3.28945342
H       -3.41537514      -6.38982251       0.51755616
H       -2.11103786      -6.99919624      -0.35367118
C        1.76506943      -3.67220333       6.44032805
C        2.41695867      -3.78440654       7.44873613
Br       3.47100844      -3.96582964       9.07924671
C       -0.00445707       0.01189536      -1.78238275
H       -0.66409135       0.67374010      -2.43557963
H        0.65740317      -0.63156657      -2.45157240
C       -0.90989263      -0.90692880      -0.91072765
C        0.90977584       0.90977584      -0.90977584
C       -0.00465871       1.77757030       0.00794375
H       -0.66225468       2.44313916      -0.64384735
H        0.64322798       2.43503045       0.67728295
C       -1.78241447       0.00034974      -0.00472694
H       -2.45427497      -0.65498947       0.64260836
H       -2.43311707       0.67328779      -0.65473579
C       -0.91132561       0.90220522       0.91563759
C       -0.01476271      -0.02253852       1.78660255
H       -0.67934791      -0.69751639       2.42135241
H        0.63392994       0.61504881       2.47327442
C        0.01484550      -1.77751727      -0.01636693
H        0.67870853      -2.42144646      -0.68295456
H       -0.62264859      -2.45592969       0.64226336
C        1.78714474       0.01002794       0.00389507
H        2.44202412       0.67113390       0.66197326
H        2.45385902      -0.65136977      -0.64189061
C        0.91606151      -0.90478549       0.90901405
