170
Properties=species:S:1:pos:R:3 pbc="F F F"
C        1.83068649       1.83068649      -1.83068649
C        3.18629752       2.10795575      -1.15650335
H        2.94362172       2.41290253      -0.12674806
C        3.90331122       3.35045605      -1.80261145
H        3.15082805       4.15415857      -1.82507958
C        4.33417893       3.13585298      -3.25258386
C        5.58889692       2.61235179      -3.59603587
C        5.92852293       2.37408775      -4.93223341
C        5.04837423       2.69730621      -5.96324671
C        3.78378972       3.18022954      -5.62783978
C        3.43801911       3.42261831      -4.29338796
N        5.33593280       2.32029419      -7.28057738
C        5.01992199       3.86589706      -0.87536322
Br       5.58555885       5.66882915      -1.38210853
C        4.06404571       0.86303841      -1.04448415
C        4.29791440       0.01280050      -2.13442959
C        5.11380174      -1.11519118      -2.00622266
C        5.66505391      -1.46065736      -0.77418976
C        5.47772356      -0.59400002       0.30289607
C        4.67203720       0.54413129       0.17819305
N        6.57231657      -2.52313766      -0.67997604
H        1.25257067       2.75144356      -1.95569743
H        1.90197780       1.32306295      -2.79504403
H        6.31268529       2.33456442      -2.83338140
H        6.89136307       1.92186591      -5.15524165
H        3.04973827       3.37219931      -6.40617000
H        2.44896550       3.82189612      -4.08012480
H        4.82772719       2.85647507      -7.97663288
H        6.33070927       2.28153737      -7.48103989
H        4.66026559       3.97523646       0.15288793
H        5.91943230       3.24658414      -0.86410591
H        3.87470644       0.22458653      -3.11401955
H        5.30854251      -1.72428730      -2.88485125
H        5.95550609      -0.79964120       1.25722440
H        4.52868818       1.17684820       1.05136590
H        6.65327040      -2.90344718       0.25781970
H        6.41311357      -3.24990488      -1.37127850
C       -1.83068649      -1.83068649      -1.83068649
C       -1.35875374      -1.79666475      -3.29533813
H       -1.21977395      -0.73058629      -3.53291207
C       -2.48562415      -2.29920614      -4.27154842
H       -3.39355885      -1.74005459      -3.99645275
C       -2.83571302      -3.77747418      -4.10942857
C       -2.18143230      -4.78962004      -4.82623225
C       -2.48690621      -6.13778055      -4.61015733
C       -3.48566718      -6.51063974      -3.71262023
C       -4.11237141      -5.51274251      -2.96674513
C       -3.81296914      -4.16204855      -3.17900770
N       -3.68121875      -7.86019910      -3.39538653
C       -2.16968508      -1.87375881      -5.71773838
Br      -3.74936328      -2.02530052      -6.86183272
C       -0.00217301      -2.46729773      -3.50209754
C        0.28762690      -3.74067649      -2.99209490
C        1.53497012      -4.33518853      -3.20461481
C        2.54669924      -3.65064473      -3.87464083
C        2.25096856      -2.40434980      -4.42744622
C        0.99969104      -1.80852897      -4.22913750
N        3.75044498      -4.29588584      -4.18371409
H       -2.83220801      -1.40237397      -1.72512968
H       -1.82002469      -2.82375098      -1.37630910
H       -1.38865488      -4.55819600      -5.53378022
H       -1.92396082      -6.89524876      -5.14926104
H       -4.84309631      -5.77798335      -2.20702791
H       -4.34352367      -3.41648925      -2.59097349
H       -4.59762146      -8.05723550      -3.00597818
H       -3.44642448      -8.49136194      -4.15550010
H       -1.90132001      -0.81352966      -5.76776445
H       -1.37861303      -2.45468735      -6.19682196
H       -0.45944901      -4.31033342      -2.44353009
H        1.70623626      -5.34202389      -2.83331883
H        2.99749969      -1.87888033      -5.01725985
H        0.82122433      -0.82262886      -4.65276594
H        4.51947834      -3.65582797      -4.35565389
H        4.00135456      -5.01931176      -3.51653001
C       -1.83068649       1.83068649       1.83068649
C       -3.15170343       1.12115227       2.17790092
H       -3.53246300       0.72847430       1.22233502
C       -4.23886811       2.14551096       2.67199965
H       -4.25429732       2.95269485       1.92307403
C       -3.90444715       2.81344874       4.00471988
C       -4.29026926       2.26899177       5.23802354
C       -3.91668097       2.87636854       6.44179457
C       -3.19310922       4.06738499       6.44843293
C       -2.77119914       4.59309181       5.22756809
C       -3.14278500       3.99169357       4.01954681
N       -2.69922898       4.58617749       7.65139791
C       -5.64023191       1.50924670       2.61170366
Br      -7.04140074       2.86980699       2.72528880
C       -2.95958194      -0.08414737       3.09613371
C       -2.19324831      -0.01629058       4.26818676
C       -2.04194043      -1.13285678       5.09574957
C       -2.59620883      -2.36180746       4.74418495
C       -3.40044410      -2.42563034       3.60601371
C       -3.56648009      -1.30794185       2.77943720
N       -2.53834530      -3.44226616       5.63307581
H       -2.00662728       2.72625423       1.22683015
H       -1.22258410       2.10078391       2.69671676
H       -4.84899622       1.33766404       5.29397085
H       -4.19296471       2.39779724       7.37770868
H       -2.14374157       5.48034838       5.20401762
H       -2.81067665       4.44975087       3.09055889
H       -2.47836117       5.57585830       7.60661567
H       -3.27719680       4.36071079       8.45537893
H       -5.81267360       1.02473695       1.64520357
H       -5.84173265       0.78470604       3.40368366
H       -1.72124555       0.91343685       4.57863012
H       -1.47868334      -1.02881249       6.01923562
H       -3.90485507      -3.35274755       3.34653296
H       -4.17812565      -1.40959940       1.88564422
H       -2.65466029      -4.34392696       5.18127020
H       -1.72141821      -3.42308003       6.23614902
C        1.83068649      -1.83068649       1.83068649
C        1.01866108      -2.98247597       2.44961957
H        0.11098603      -2.51290246       2.85938383
C        1.76230920      -3.60614777       3.68792173
H        2.04541783      -2.75625455       4.32839381
C        3.06577014      -4.32106550       3.33578013
C        3.11213155      -5.68241238       3.00274064
C        4.31474614      -6.29164598       2.62845196
C        5.50972400      -5.57461509       2.62458805
C        5.46531266      -4.21135923       2.91518715
C        4.26608424      -3.59584283       3.29209832
N        6.67676615      -6.15108678       2.10895145
C        0.78434905      -4.44332328       4.53350994
Br       1.51766349      -4.80882042       6.31001262
C        0.54919608      -4.00532163       1.41705057
C        1.41757712      -4.56076683       0.46680054
C        0.96311091      -5.50267976      -0.46095745
C       -0.38081566      -5.86710669      -0.50770471
C       -1.24084646      -5.35668997       0.46498396
C       -0.78950270      -4.42249650       1.40498163
N       -0.80434563      -6.89392547      -1.36042489
H        2.20797878      -1.15088117       2.60085171
H        2.66424003      -2.15292991       1.20291484
H        2.21002136      -6.28938162       2.98122813
H        4.30175743      -7.33667250       2.33004069
H        6.36862326      -3.61040913       2.84907518
H        4.28292952      -2.53523099       3.53282590
H        7.52814230      -5.70185840       2.43083444
H        6.71213646      -7.15973342       2.22141665
H       -0.13950687      -3.89034227       4.73177873
H        0.52313284      -5.40983826       4.09715125
H        2.47239176      -4.29530076       0.44561999
H        1.67604780      -5.94479054      -1.15173187
H       -2.27836197      -5.67881772       0.49818473
H       -1.50071533      -4.02768035       2.12720545
H       -1.79679221      -6.86034029      -1.57154456
H       -0.24056487      -6.97620120      -2.20114913
C       -0.00445707       0.01189536      -1.78238275
H       -0.66409135       0.67374010      -2.43557963
H        0.65740317      -0.63156657      -2.45157240
C       -0.90989263      -0.90692880      -0.91072765
C        0.90977584       0.90977584      -0.90977584
C       -0.00465871       1.77757030       0.00794375
H       -0.66225468       2.44313916      -0.64384735
H        0.64322798       2.43503045       0.67728295
C       -1.78241447       0.00034974      -0.00472694
H       -2.45427497      -0.65498947       0.64260836
H       -2.43311707       0.67328779      -0.65473579
C       -0.91132561       0.90220522       0.91563759
C       -0.01476271      -0.02253852       1.78660255
H       -0.67934791      -0.69751639       2.42135241
H        0.63392994       0.61504881       2.47327442
C        0.01484550      -1.77751727      -0.01636693
H        0.67870853      -2.42144646      -0.68295456
H       -0.62264859      -2.45592969       0.64226336
C        1.78714474       0.01002794       0.00389507
H        2.44202412       0.67113390       0.66197326
H        2.45385902      -0.65136977      -0.64189061
C        0.91606151      -0.90478549       0.90901405
