173
Properties=species:S:1:pos:R:3 pbc="F F F"
C        0.00000000       0.00000000       0.00000000
C        0.92035413       0.92035413      -0.92035413
C        0.07468501       1.82687239      -1.82156486
H       -0.70639750       2.28912486      -1.20233633
C        0.93531607       2.94717966      -2.39634567
C        2.05215561       2.67709696      -3.20290787
C        2.82317751       3.71957422      -3.72749211
C        2.52643465       5.04955702      -3.42787981
C        1.37860132       5.32325579      -2.68264144
C        0.60104754       4.28699500      -2.15402111
N        3.22371462       6.08738916      -4.05754461
C       -0.57216771       1.08766665      -2.88000621
C       -1.10532489       0.47841849      -3.75238234
C       -1.67381312      -0.16065838      -5.02151461
C       -2.04057585      -0.55398655      -6.09210182
C       -2.44738157      -0.96840520      -7.45457642
H       -2.53928550      -2.06280470      -7.45649793
C       -1.38105828      -0.57630119      -8.47279216
C       -1.02412669       0.76497758      -8.68559939
C       -0.04428749       1.10480155      -9.62553293
C        0.56993561       0.12396270     -10.40450347
C        0.26532391      -1.21392853     -10.14948974
C       -0.71291350      -1.56319813      -9.21077462
N        1.63485853       0.45785316     -11.24987364
C       -3.79741322      -0.36121331      -7.84840759
H        1.56887020       0.23809719      -1.47974171
H        1.53215532       1.49782849      -0.21940006
H        2.31891075       1.65308540      -3.45673425
H        3.65846146       3.47943480      -4.38020681
H        1.07414102       6.35185322      -2.50785600
H       -0.27941532       4.54121600      -1.56766542
H        3.16701686       6.97371079      -3.56616885
H        4.17851346       5.84570778      -4.30358489
H       -1.48442244       1.56141393      -8.10406667
H        0.23721832       2.14859799      -9.73886887
H        0.79141317      -2.00308641     -10.68039305
H       -0.93160693      -2.61686268      -9.05216733
H        1.80321223      -0.22289205     -11.98366494
H        1.58816952       1.40600149     -11.60973554
H       -3.85845806       0.71505208      -7.65597397
H       -4.03627871      -0.54741316      -8.90068427
C       -4.87648643      -0.96210809      -7.10805195
C       -5.78021025      -1.46535746      -6.48800410
Br      -7.24145522      -2.27906914      -5.48543917
C       -0.92035413      -0.92035413      -0.92035413
C       -0.97812978      -2.35659719      -0.38839528
H       -1.16661495      -2.31155990       0.69311117
C       -2.13869148      -3.10900103      -1.03114890
C       -2.21353499      -3.29847894      -2.42014651
C       -3.28212730      -3.99928844      -2.98882810
C       -4.31934564      -4.48966619      -2.19485965
C       -4.21373198      -4.36164456      -0.80912201
C       -3.14829422      -3.66253540      -0.23123403
N       -5.31631434      -5.29681077      -2.75552329
C        0.26418638      -3.06239696      -0.59729457
C        1.28811203      -3.64413330      -0.76945468
C        2.47456166      -4.54730038      -1.11430440
C        3.30120499      -5.34554002      -1.45320440
C        4.25353372      -6.38494843      -1.90737494
H        5.19557186      -5.88340885      -2.16657075
C        3.72506348      -7.08464025      -3.15585593
C        2.51753879      -7.80118034      -3.14280874
C        2.05002271      -8.43770912      -4.29836058
C        2.79315380      -8.41283596      -5.47871963
C        3.95964616      -7.64740473      -5.51312656
C        4.43449686      -7.00680210      -4.36235775
N        2.26038457      -8.94305745      -6.65991247
C        4.53117577      -7.41386338      -0.80709345
H       -0.50548083      -0.84998798      -1.93124029
H       -1.90415827      -0.43970529      -0.90552030
H       -1.42645954      -2.92821245      -3.07405841
H       -3.29175967      -4.16304100      -4.06330239
H       -4.96217466      -4.81040266      -0.16127293
H       -3.10804911      -3.57376815       0.85235116
H       -6.16490394      -5.34155855      -2.20043400
H       -5.50664141      -5.09012042      -3.73104430
H        1.91100070      -7.85144119      -2.24061766
H        1.09256791      -8.95135129      -4.26590179
H        4.51285707      -7.53913172      -6.44244515
H        5.35575588      -6.43212586      -4.42732774
H        2.96020737      -9.16270276      -7.36148974
H        1.61573209      -9.71234122      -6.50729742
H        3.62015756      -7.79709878      -0.33562678
H        5.12042796      -8.25863626      -1.17878409
C        5.32162877      -6.84443257       0.25334637
C        5.98363316      -6.36753427       1.14146472
Br       7.05403826      -5.59643005       2.57747698
C       -0.92035413       0.92035413       0.92035413
C       -1.37552899       0.17043677       2.17715649
H       -0.49803652      -0.32642106       2.61344822
C       -1.91364402       1.15457896       3.21061843
C       -3.01530649       1.98040501       2.93644893
C       -3.49873124       2.87002898       3.90148361
C       -2.87281611       2.98822665       5.14282872
C       -1.82054306       2.12169607       5.44225943
C       -1.33038896       1.22828665       4.48338805
N       -3.43779139       3.78582243       6.14503458
C       -2.36035157      -0.84216572       1.87731931
C       -3.17204420      -1.67677315       1.63020490
C       -4.35603913      -2.63202306       1.46302705
C       -5.35428451      -3.29400583       1.43726075
C       -6.62267659      -4.05781708       1.47393015
H       -6.82071273      -4.42390911       0.45760411
C       -7.77879708      -3.15357863       1.89021425
C       -7.80184988      -2.51698757       3.14158798
C       -8.87238073      -1.69216664       3.50583290
C       -9.96255196      -1.51730491       2.65315474
C       -9.91222072      -2.09507035       1.38373476
C       -8.84514604      -2.92102660       1.01054355
N      -10.96649312      -0.59453215       2.97062437
C       -6.52948744      -5.25926405       2.41955766
H       -1.75162305       1.24777818       0.28730787
H       -0.29722901       1.78686052       1.16529433
H       -3.52886782       1.92096659       1.97889599
H       -4.37713214       3.46801644       3.67295448
H       -1.37122668       2.13077274       6.43185082
H       -0.50042703       0.57783141       4.75120766
H       -2.78065629       4.05656647       6.86967374
H       -3.96224684       4.57808660       5.78747269
H       -6.97466260      -2.63283424       3.83922980
H       -8.84182485      -1.18273875       4.46559908
H      -10.70681300      -1.90497108       0.66687789
H       -8.85085714      -3.36446482       0.01730541
H      -11.84012929      -0.75593791       2.47979374
H      -11.10473738      -0.46940135       3.96857051
H       -6.11591394      -5.00424201       3.40089608
H       -7.50142281      -5.74382602       2.55939561
C       -5.67486502      -6.28450936       1.87910176
C       -4.95911875      -7.14315231       1.42646995
Br      -3.80181756      -8.53150533       0.69460258
C        0.92035413      -0.92035413       0.92035413
C        2.03029337      -0.10270311       1.59012578
H        1.57685185       0.80450209       2.01271392
C        2.64494212      -0.89368753       2.74021176
C        3.26869899      -2.13363964       2.52982181
C        3.83410056      -2.83895174       3.59719154
C        3.75491692      -2.34811801       4.90083655
C        3.19565860      -1.08555774       5.10328223
C        2.62790710      -0.37253386       4.04162270
N        4.43182717      -2.99568658       5.94113465
C        3.04825510       0.30212699       0.64937705
C        3.88727100       0.63580821      -0.12598685
C        5.11670193       0.94693840      -0.98272042
C        6.16011661       1.11581204      -1.54676514
C        7.49254237       1.28201697      -2.17173574
H        7.35711141       1.24183783      -3.26086584
C        8.42020686       0.14192851      -1.76284565
C        8.76873284      -0.07826674      -0.42054930
C        9.62261443      -1.12890942      -0.06547685
C       10.18279104      -1.95538356      -1.03977282
C        9.78697973      -1.78052879      -2.36662339
C        8.93282620      -0.73275142      -2.73091463
N       10.93272499      -3.07761003      -0.66774968
C        8.12292892       2.62885392      -1.80429395
H        1.30091623      -1.71525708       0.27053579
H        0.23627974      -1.35839650       1.65470763
H        3.34787005      -2.55234111       1.52851924
H        4.34411592      -3.77755790       3.39642923
H        3.19934317      -0.63993154       6.09457554
H        2.19044979       0.60319699       4.24221330
H        4.07533654      -2.76781066       6.86374930
H        4.52739775      -3.99693665       5.80347173
H        8.35944500       0.54809886       0.36971202
H        9.84198023      -1.29686267       0.98584227
H       10.13962021      -2.46388310      -3.13478351
H        8.66011525      -0.62162227      -3.77803980
H       11.54221054      -3.42367305      -1.40189847
H       11.42069533      -2.96753862       0.21567260
H        8.08672794       2.84312378      -0.73103616
H        9.16116485       2.69907233      -2.14510012
C        7.44179957       3.71897820      -2.45336394
C        6.87135374       4.63195729      -2.99696006
Br       5.94899107       6.10816725      -3.87590901
