165
Properties=species:S:1:pos:R:3 pbc="F F F"
C        0.00000000       0.00000000       0.00000000
C        0.92035413       0.92035413      -0.92035413
C        0.07468501       1.82687239      -1.82156486
H       -0.70639750       2.28912486      -1.20233633
C        0.93531607       2.94717966      -2.39634567
C        2.05215561       2.67709696      -3.20290787
C        2.82317751       3.71957422      -3.72749211
C        2.52643465       5.04955702      -3.42787981
C        1.37860132       5.32325579      -2.68264144
C        0.60104754       4.28699500      -2.15402111
N        3.22371462       6.08738916      -4.05754461
C       -0.57216771       1.08766665      -2.88000621
C       -1.10532489       0.47841849      -3.75238234
C       -1.67381312      -0.16065838      -5.02151461
C       -2.04057585      -0.55398655      -6.09210182
C       -2.44738157      -0.96840520      -7.45457642
H       -2.53928550      -2.06280470      -7.45649793
C       -1.38105828      -0.57630119      -8.47279216
C       -1.02412669       0.76497758      -8.68559939
C       -0.04428749       1.10480155      -9.62553293
C        0.56993561       0.12396270     -10.40450347
C        0.26532391      -1.21392853     -10.14948974
C       -0.71291350      -1.56319813      -9.21077462
N        1.63485853       0.45785316     -11.24987364
C       -3.79741322      -0.36121331      -7.84840759
Br      -5.26302420      -1.17735625      -6.84284713
H        1.56887020       0.23809719      -1.47974171
H        1.53215532       1.49782849      -0.21940006
H        2.31891075       1.65308540      -3.45673425
H        3.65846146       3.47943480      -4.38020681
H        1.07414102       6.35185322      -2.50785600
H       -0.27941532       4.54121600      -1.56766542
H        3.16701686       6.97371079      -3.56616885
H        4.17851346       5.84570778      -4.30358489
H       -1.48442244       1.56141393      -8.10406667
H        0.23721832       2.14859799      -9.73886887
H        0.79141317      -2.00308641     -10.68039305
H       -0.93160693      -2.61686268      -9.05216733
H        1.80321223      -0.22289205     -11.98366494
H        1.58816952       1.40600149     -11.60973554
H       -3.85845806       0.71505208      -7.65597397
H       -4.03627871      -0.54741316      -8.90068427
C       -0.92035413      -0.92035413      -0.92035413
C       -2.31028238      -1.10995194      -0.30288794
H       -2.67744491      -0.12522557       0.01760680
C       -3.28078378      -1.64975994      -1.34829770
C       -3.06403402      -2.88081689      -1.98730953
C       -3.97120320      -3.36206409      -2.93697655
C       -5.08952210      -2.61202353      -3.30232584
C       -5.34293841      -1.42075345      -2.62080670
C       -4.44135066      -0.93161437      -1.66909863
N       -6.05580004      -3.15606361      -4.15678475
C       -2.27626371      -1.97332211       0.85408067
C       -2.24823948      -2.68490939       1.80767293
C       -2.36532674      -3.73581615       2.91409978
C       -2.55974804      -4.62777290       3.68998150
C       -2.86556283      -5.76341329       4.59018646
H       -1.93902766      -6.03100624       5.11562616
C       -3.32535375      -6.97469433       3.78461538
C       -4.48066906      -6.93336806       2.98758684
C       -4.88708819      -8.05582692       2.25686812
C       -4.17962266      -9.25550412       2.33672500
C       -2.99559983      -9.28041571       3.07513041
C       -2.58100875      -8.16228635       3.80863211
N       -4.51885568     -10.33186862       1.50813896
C       -3.92840666      -5.38920215       5.62782775
Br      -3.21524278      -4.14413028       6.95690638
H       -0.37406596      -1.86005980      -1.05258335
H       -0.96860873      -0.39878255      -1.88199259
H       -2.20179117      -3.49401458      -1.73292465
H       -3.79600487      -4.33642537      -3.38567282
H       -6.25175436      -0.85977009      -2.82232579
H       -4.66830471       0.00724316      -1.16840454
H       -6.64339004      -2.45960463      -4.60390182
H       -5.68081782      -3.82538645      -4.82160187
H       -5.06519967      -6.01925670       2.90339821
H       -5.76388017      -7.97967734       1.61887233
H       -2.37859121     -10.17517847       3.08504987
H       -1.65981524      -8.22729184       4.38340935
H       -4.17784526     -11.22779559       1.84165573
H       -5.50354379     -10.36343290       1.26307015
H       -4.80409252      -4.89859782       5.19012235
H       -4.26026739      -6.25981098       6.20308598
C       -0.92035413       0.92035413       0.92035413
C       -0.10409424       2.03492649       1.58410153
H        0.52770973       2.49870235       0.81407106
C       -1.03398970       3.11221524       2.13263647
C       -1.99976872       2.82284503       3.10954668
C       -2.83695595       3.82745362       3.60583427
C       -2.76109617       5.13033108       3.11244422
C       -1.75801587       5.43526478       2.19121791
C       -0.91572773       4.43700166       1.68933427
N       -3.51260242       6.15340337       3.70264261
C        0.75846544       1.52843050       2.62554009
C        1.46940829       1.11098534       3.48389889
C        2.26641952       0.72220075       4.73126189
C        2.80804452       0.52417570       5.78140824
C        3.42669265       0.34974993       7.11573238
H        3.66568793      -0.71546495       7.23556061
C        2.44604372       0.74640478       8.21507164
C        1.93848810       2.05197777       8.31296061
C        1.04066335       2.39690280       9.32980755
C        0.66231838       1.46459566      10.29612450
C        1.11292520       0.15039855      10.16341178
C        2.01060023      -0.20384264       9.14910586
N       -0.32965556       1.78072657      11.23220321
C        4.71915809       1.16121951       7.24771964
Br       6.15153346       0.39678086       6.15721928
H       -1.39907210       0.24786950       1.63976751
H       -1.68391670       1.32041719       0.24504998
H       -2.09307033       1.81827942       3.51738065
H       -3.54819397       3.58022469       4.38968440
H       -1.61883231       6.45954941       1.85546853
H       -0.15405518       4.71246051       0.96295042
H       -3.63554529       6.96530654       3.10604467
H       -4.38963883       5.83528322       4.10288408
H        2.21395863       2.81133780       7.58367899
H        0.63577350       3.40538044       9.35507824
H        0.76572244      -0.61650588      10.85094813
H        2.34965305      -1.23564805       9.08899882
H       -0.31552172       1.19058488      12.05787852
H       -0.36939963       2.76765392      11.46685300
H        4.61035858       2.20099357       6.92193301
H        5.10472350       1.14919962       8.27251628
C        0.92035413      -0.92035413       0.92035413
C        2.39456926      -0.81369305       0.51485995
H        2.63892705       0.25103718       0.39717381
C        3.28525837      -1.37541517       1.61816787
C        3.18351311      -2.71139053       2.03725680
C        4.01612503      -3.20921704       3.04490177
C        4.93740308      -2.38043655       3.68603185
C        5.08727585      -1.07141084       3.22581187
C        4.25912789      -0.56477111       2.21816466
N        5.85107557      -2.91608981       4.60148302
C        2.66066379      -1.47550522      -0.74066386
C        2.87999475      -2.02096350      -1.77548230
C        3.31698757      -2.85326535      -2.98320980
C        3.75817114      -3.57284096      -3.83347267
C        4.36470230      -4.49507218      -4.82098483
H        3.57519535      -4.80006675      -5.52085436
C        4.89780645      -5.74494454      -4.12731829
C        5.90976345      -5.67317652      -3.15648969
C        6.38675276      -6.83157277      -2.53227854
C        5.89993170      -8.08889105      -2.89042097
C        4.84916251      -8.15804482      -3.80632221
C        4.36527115      -7.00456147      -4.43516963
N        6.29029198      -9.22732441      -2.17503105
C        5.48654760      -3.81499843      -5.61176498
Br       4.77286302      -2.48276417      -6.85316051
H        0.51975869      -1.93552734       0.83142307
H        0.75031596      -0.55906952       1.93999838
H        2.47504080      -3.38890368       1.56478592
H        3.93993285      -4.25792179       3.32024842
H        5.85699340      -0.42994972       3.64690713
H        4.39881505       0.46478792       1.89543897
H        6.25106785      -2.22630543       5.22952322
H        5.50056620      -3.72922016       5.09801976
H        6.32190210      -4.71261539      -2.85345932
H        7.14294278      -6.73868255      -1.75694015
H        4.39188881      -9.11616936      -4.03933837
H        3.55514717      -7.10290070      -5.15435014
H        6.14768764     -10.09621117      -2.67991369
H        7.22366370      -9.16139972      -1.78115688
H        6.20255088      -3.28497691      -4.97495979
H        6.03082301      -4.52704019      -6.24087080
