77
Properties=species:S:1:pos:R:3 pbc="F F F"
C        0.00000000       0.00000000       0.00000000
F        1.28047049       1.91225344      -3.67720482
C        0.88779621       2.75173579      -2.67881764
C        0.09530259       1.97329400      -1.64126293
C        0.91869115       0.91869115      -0.91869115
F        1.57777742       0.12999165      -1.80431575
F        1.86306746       1.48951959      -0.13181064
F       -0.46727164       2.83374517      -0.74259081
F       -0.96396545       1.38088412      -2.28004043
C        2.09639294       3.48362242      -2.13344244
C        2.66403851       4.54857914      -3.05742799
C        3.09478857       4.00650515      -4.41190693
Br       4.04350453       5.36366083      -5.44865765
F        3.90214513       2.92523233      -4.26521127
F        2.02560841       3.59455976      -5.13649588
F        1.75988994       5.55827044      -3.21717932
F        3.73579457       5.12455505      -2.42489189
F        1.76105017       4.07677001      -0.94906661
F        3.06856149       2.58167868      -1.82481090
F        0.04945062       3.65447851      -3.27222210
F       -0.87172606      -2.81332045      -3.18488225
C       -1.15401529      -3.24147362      -1.92286072
C       -0.43561899      -2.36052416      -0.91371637
C       -0.91869115      -0.91869115      -0.91869115
F       -0.91996669      -0.41402793      -2.17809019
F       -2.19233415      -0.82771819      -0.46434535
F       -0.55123211      -2.89520599       0.33737375
F        0.90533070      -2.40396541      -1.19832438
C       -2.65584010      -3.31583812      -1.74177958
C       -3.32839472      -4.46154972      -2.48010119
C       -3.10203051      -4.42721282      -3.98395732
Br      -4.19395989      -5.76664616      -4.89521697
F       -3.39967062      -3.20322771      -4.48969040
F       -1.80267329      -4.66532087      -4.28866989
F       -2.91369052      -5.65574533      -1.96590384
F       -4.67169492      -4.40292418      -2.21062241
F       -2.93857637      -3.43777690      -0.41053352
F       -3.21535583      -2.13506180      -2.12463344
F       -0.63159900      -4.50259699      -1.84195525
F       -3.10628640       2.90325060       0.86039176
C       -3.31310636       1.65074081       1.35450247
C       -2.39387835       0.66690817       0.64907300
C       -0.91869115       0.91869115       0.91869115
F       -0.60125452       2.21825892       0.69257138
F       -0.60733316       0.66411012       2.21295440
F       -2.72750554      -0.61165924       0.99321804
F       -2.64284374       0.75113207      -0.69701671
C       -3.17459299       1.67639883       2.86246597
C       -4.32117324       2.35497687       3.59389553
C       -4.52846927       3.80417686       3.18055452
Br      -5.83789515       4.68802445       4.32990341
F       -3.36112002       4.49454910       3.23691961
F       -4.96632548       3.88994064       1.90039794
F       -5.47255665       1.64339849       3.41938456
F       -4.05914649       2.28782463       4.93827039
F       -3.07080479       0.39386818       3.32221382
F       -1.99986097       2.27782770       3.19736240
F       -4.60492546       1.34117913       1.03004665
F        3.61399842      -2.10578704       1.15014330
C        3.21429845      -1.11213101       1.99192018
C        2.21613492      -0.21307619       1.28064841
C        0.91869115      -0.91869115       0.91869115
F        1.16719723      -2.08080398       0.26408361
F        0.21213887      -1.24356016       2.02869866
F        1.95919541       0.89141298       2.04128191
F        2.81819142       0.26689656       0.14566423
C        2.70916657      -1.72079540       3.28349583
C        3.79263722      -2.29741990       4.17998851
C        4.61351997      -3.38918014       3.51050055
Br       5.80923444      -4.25959994       4.78698864
F        3.80656473      -4.32957593       2.95644807
F        5.36800407      -2.88569788       2.50296210
F        4.60818310      -1.29911420       4.62804240
F        3.18556751      -2.79541952       5.30425447
F        2.02961236      -0.76821451       3.98905991
F        1.79103076      -2.68511108       2.99890922
F        4.34087421      -0.38234053       2.25293649
