122
Properties=species:S:1:pos:R:3 pbc="F F F"
F        3.40288479       2.33486636      -4.13762419
C        4.02581095       2.07157330      -2.95840446
C        3.17137648       1.16770433      -2.08383656
C        1.83150179       1.83150179      -1.83150179
F        1.97731898       3.03307279      -1.21739000
F        1.16659396       2.06981145      -2.99055066
F        3.00004554      -0.04894196      -2.68441603
F        3.81177650       0.90871607      -0.90364904
C        5.32085294       1.51006401      -3.26289152
C        6.38823941       1.04725451      -3.51386021
C        7.61511277       0.51528948      -3.80232536
C        8.68249808       0.05248966      -4.05329179
C        9.97753272      -0.50903145      -4.35777632
C       11.07775977       0.53603114      -4.44189442
C       12.39083588      -0.14045840      -4.78958233
F       12.73144498      -1.07384759      -3.86404554
F       12.31677378      -0.78938657      -5.98053853
F       10.76382111       1.48256049      -5.37783427
F       11.18211690       1.21038045      -3.25707453
F       10.26235677      -1.43851149      -3.40768704
F        9.86546265      -1.19024348      -5.52850242
F        4.22548670       3.27628958      -2.36147810
C       13.45653883       0.82468794      -4.86939330
C       14.34906504       1.63299799      -4.93623499
Br      15.79220444       2.93996698      -5.04431235
F       -3.69758659      -3.92450081      -2.25328793
C       -2.38430220      -4.14551593      -2.52597058
C       -1.49455380      -3.29648647      -1.63187710
C       -1.83150179      -1.83150179      -1.83150179
F       -1.65559612      -1.45005455      -3.12213110
F       -3.12840884      -1.57179919      -1.52674803
F       -1.65939202      -3.65395407      -0.32217352
F       -0.17751060      -3.53188890      -1.91474210
C       -2.14113361      -5.56241097      -2.39026389
C       -1.94071560      -6.73023449      -2.27840404
C       -1.71034779      -8.07255190      -2.14982791
C       -1.50993138      -9.24037118      -2.03797696
C       -1.26675825     -10.65726165      -1.90225769
C       -1.42913425     -11.41961783      -3.20693325
C       -1.18071869     -12.89655021      -2.96269092
F        0.06444686     -13.11781893      -2.46827087
F       -2.05151428     -13.40420124      -2.05221022
F       -2.68157852     -11.22277593      -3.71986141
F       -0.56510268     -10.93512033      -4.14934887
F       -0.01470825     -10.81861379      -1.39821028
F       -2.11760162     -11.13162497      -0.95449500
F       -2.21154349      -3.81792790      -3.83378299
C       -1.32018220     -13.64620193      -4.18423593
C       -1.43698289     -14.27403525      -5.20727988
Br      -1.62583973     -15.28918863      -6.86145542
F       -4.27701198       3.10536146       2.49300190
C       -3.27849118       3.84091944       1.93637809
C       -2.41183501       2.98078423       1.03029812
C       -1.83150179       1.83150179       1.83150179
F       -1.08050967       2.27643820       2.87083390
F       -2.80672977       1.05370315       2.36652314
F       -3.14741574       2.51038556      -0.02228170
F       -1.41480673       3.73424689       0.47508798
C       -3.88643122       4.95680985       1.25056739
C       -4.38750986       5.87653530       0.68530897
C       -4.96345651       6.93368422       0.03558688
C       -5.46453130       7.85341059      -0.52966236
C       -6.07246935       8.96929214      -1.21548390
C       -6.19221111      10.21127197      -0.34779775
C       -6.86250075      11.31803079      -1.14057172
F       -6.16101207      11.62311433      -2.26248347
F       -8.10503475      10.95420971      -1.55131872
F       -6.90655836       9.93290200       0.78475550
F       -4.95719140      10.60813128       0.08424920
F       -5.33668782       9.22444291      -2.32959841
F       -7.29344060       8.56582070      -1.65553971
F       -2.55323286       4.33625401       2.97376751
C       -6.98388679      12.51299200      -0.34625872
C       -7.08554760      13.51377201       0.31897842
Br      -7.24992453      15.13194864       1.39461061
F        2.38406405      -4.19705676       3.29425453
C        2.01272394      -3.07583723       3.96722754
C        1.10779022      -2.20421518       3.11091196
C        1.83150179      -1.83150179       1.83150179
F        2.98236442      -1.15876101       2.08665634
F        2.17914357      -2.93148391       1.11632858
F       -0.05744573      -2.86277378       2.83019157
F        0.73966401      -1.08285970       3.80161788
C        1.39675724      -3.49180235       5.20524888
C        0.88906388      -3.83465280       6.22563745
C        0.30550837      -4.22872872       7.39849051
C       -0.20217541      -4.57157629       8.41887865
C       -0.81815362      -4.98753912       9.65689209
C        0.16438793      -5.07852236      10.81277505
C       -0.56452666      -5.54532913      12.05915735
F       -1.57148182      -4.69840205      12.39472270
F       -1.13330119      -6.76514421      11.87608272
F        1.18352786      -5.93669751      10.50399049
F        0.75710994      -3.86521386      11.02724807
F       -1.81948673      -4.11247739       9.93854166
F       -1.41813528      -6.18672738       9.43512949
F        3.16465079      -2.42336161       4.27524198
C        0.34012723      -5.63453484      13.17595800
C        1.09777485      -5.70924463      14.11127854
Br       2.32282699      -5.83004404      15.62361275
C       -0.00445707       0.01189536      -1.78238275
H       -0.66409135       0.67374010      -2.43557963
H        0.65740317      -0.63156657      -2.45157240
C       -0.90989263      -0.90692880      -0.91072765
C        0.90977584       0.90977584      -0.90977584
C       -0.00465871       1.77757030       0.00794375
H       -0.66225468       2.44313916      -0.64384735
H        0.64322798       2.43503045       0.67728295
C       -1.78241447       0.00034974      -0.00472694
H       -2.45427497      -0.65498947       0.64260836
H       -2.43311707       0.67328779      -0.65473579
C       -0.91132561       0.90220522       0.91563759
C       -0.01476271      -0.02253852       1.78660255
H       -0.67934791      -0.69751639       2.42135241
H        0.63392994       0.61504881       2.47327442
C        0.01484550      -1.77751727      -0.01636693
H        0.67870853      -2.42144646      -0.68295456
H       -0.62264859      -2.45592969       0.64226336
C        1.78714474       0.01002794       0.00389507
H        2.44202412       0.67113390       0.66197326
H        2.45385902      -0.65136977      -0.64189061
C        0.91606151      -0.90478549       0.90901405
