54
Properties=species:S:1:pos:R:3 pbc="F F F"
C        1.80347005       1.80347005      -1.80347005
C        1.98304621       1.40650513      -3.24226558
C        1.14039843       2.60357091      -2.89430937
Br       1.83793263       4.33604742      -3.28886868
H        2.65867390       2.23264364      -1.29415877
H        1.47332350       0.52475689      -3.61314633
H        2.95882849       1.56207377      -3.68756607
H        0.06789773       2.51083931      -3.02408974
C       -1.80347005      -1.80347005      -1.80347005
C       -2.04652543      -1.36466415      -3.22062734
C       -1.15228876      -2.54261465      -2.94337529
Br      -1.80428520      -4.28409933      -3.37446420
H       -2.62537011      -2.27922498      -1.28088121
H       -1.58014294      -0.45361865      -3.57746513
H       -3.03146475      -1.53911567      -3.63788791
H       -0.08872265      -2.40812583      -3.10597829
C       -1.80347005       1.80347005       1.80347005
C       -2.54145656       2.93918512       1.15117524
C       -3.29643989       1.72410534       1.61773348
Br      -4.40467967       1.89575181       3.16241725
H       -1.41450861       1.96943670       2.80153099
H       -2.44119732       3.08782720       0.08220220
H       -2.63544148       3.86308625       1.70994060
H       -3.68775629       1.05939048       0.85568001
C        1.80347005      -1.80347005       1.80347005
C        2.51970003      -2.95588458       1.15623231
C        3.29491081      -1.74457114       1.59879676
Br       4.41976489      -1.91109462       3.13198922
H        1.42474239      -1.95263641       2.80809751
H        2.40462162      -3.11616657       0.09043853
H        2.60935210      -3.87406134       1.72505489
H        3.68488428      -1.09391391       0.82402858
C       -0.00445707       0.01189536      -1.78238275
H       -0.66409135       0.67374010      -2.43557963
H        0.65740317      -0.63156657      -2.45157240
C       -0.90989263      -0.90692880      -0.91072765
C        0.90977584       0.90977584      -0.90977584
C       -0.00465871       1.77757030       0.00794375
H       -0.66225468       2.44313916      -0.64384735
H        0.64322798       2.43503045       0.67728295
C       -1.78241447       0.00034974      -0.00472694
H       -2.45427497      -0.65498947       0.64260836
H       -2.43311707       0.67328779      -0.65473579
C       -0.91132561       0.90220522       0.91563759
C       -0.01476271      -0.02253852       1.78660255
H       -0.67934791      -0.69751639       2.42135241
H        0.63392994       0.61504881       2.47327442
C        0.01484550      -1.77751727      -0.01636693
H        0.67870853      -2.42144646      -0.68295456
H       -0.62264859      -2.45592969       0.64226336
C        1.78714474       0.01002794       0.00389507
H        2.44202412       0.67113390       0.66197326
H        2.45385902      -0.65136977      -0.64189061
C        0.91606151      -0.90478549       0.90901405
