69
Properties=species:S:1:pos:R:3 pbc="F F F"
C        0.00000000       0.00000000       0.00000000
C        0.89195495       0.89195495      -0.89195495
H        1.09611971       1.87655562      -0.48546353
C        0.74744375       0.77926911      -2.37971108
C        1.98200007       0.22628555      -1.70761061
H        2.01947273      -0.86230762      -1.63572189
C        3.36788746       0.85799514      -1.84991737
H        3.74920190       1.25544344      -0.90757724
C        3.81394932       1.60445377      -3.08449064
C        4.41286837       0.26563211      -2.77400563
H        4.11491229      -0.56757023      -3.40115270
H        0.82891834       1.69323798      -2.95597411
H        0.03614120       0.07014856      -2.78760573
H        4.41465490       2.49596657      -2.94410095
H        3.14334948       1.66205862      -3.93379253
C        5.77685393       0.22067021      -2.31452568
C        6.91919183       0.18301461      -1.92971121
Br       8.76625561       0.12212869      -1.30749878
C       -0.89195495      -0.89195495      -0.89195495
H       -0.46378903      -1.85804091      -1.13630891
C       -1.73748336      -0.23066783      -1.93827275
C       -2.39422705      -0.81280439      -0.70886479
H       -2.73693039      -0.07836244       0.02240583
C       -3.26713890      -2.06860863      -0.74005244
H       -2.83173483      -2.89908989      -0.18139785
C       -4.09724039      -2.46956095      -1.93609240
C       -4.77930622      -1.97859222      -0.69460767
H       -5.22537549      -0.99071031      -0.73240897
H       -1.84704185      -0.74597015      -2.88511843
H       -1.71151426       0.84906613      -2.03144735
H       -4.14752480      -3.52395063      -2.18324700
H       -4.11758419      -1.81905641      -2.80256003
C       -5.49131495      -2.93433485       0.11359998
C       -6.08762225      -3.73476929       0.79047389
Br      -7.05180074      -5.02900410       1.88492175
C       -0.89195495       0.89195495       0.89195495
H       -0.91306022       0.60687324       1.93820539
C       -2.15514311       1.44608902       0.30519181
C       -0.98635282       2.36794922       0.56159419
H       -0.44214019       2.68184900      -0.33110218
C       -0.98323285       3.43148102       1.66108609
H       -0.24118888       3.23418080       2.43685290
C       -2.23291644       4.13307191       2.13690539
C       -1.21497628       4.89492909       1.34260075
H       -1.47492763       5.15205775       0.32150938
H       -3.02014311       1.50269805       0.95528927
H       -2.40054185       1.21947502      -0.72612138
H       -2.32685506       4.32878297       3.19908440
H       -3.17602978       3.91211813       1.65105272
C       -0.41082621       5.87341189       2.02781171
C        0.26264948       6.69289124       2.60167590
Br       1.35160270       8.01792003       3.52956575
C        0.89195495      -0.89195495       0.89195495
H        1.83158101      -0.43839225       1.18816560
C        0.89025658      -2.37057071       0.64559665
C        0.21525512      -1.82068651       1.87995460
H       -0.87587681      -1.82103118       1.84773263
C        0.76558690      -2.01647082       3.29374224
H        1.07284937      -1.07887020       3.76050301
C        1.56441912      -3.22846595       3.71000866
C        0.17212786      -3.04542316       4.23495510
H       -0.59576043      -3.70264701       3.84160818
H        1.83428360      -2.89162833       0.75221849
H        0.25732241      -2.77344961      -0.13687653
H        2.40421039      -3.07277421       4.37773784
H        1.72232713      -4.02474136       2.99213214
C        0.00916213      -2.68367173       5.61921595
C       -0.12732166      -2.38070492       6.77853440
Br      -0.34800441      -1.89083320       8.65305429
