82
Properties=species:S:1:pos:R:3 pbc="F F F"
C        1.80185897       1.80185897      -1.80185897
H        2.00602373       2.78645964      -1.39536755
C        1.65734778       1.68917314      -3.28961510
C        2.89190410       1.13618957      -2.61751464
H        2.92937675       0.04759641      -2.54562592
C        4.27779148       1.76789916      -2.75982139
H        4.65910593       2.16534746      -1.81748126
C        4.72385335       2.51435780      -3.99439466
C        5.32277240       1.17553614      -3.68390965
H        5.02481632       0.34233379      -4.31105673
Br       7.13034838       1.11595188      -3.07499930
H        1.73882236       2.60314200      -3.86587814
H        0.94604522       0.98005258      -3.69750976
H        5.32455893       3.40587060      -3.85400498
H        4.05325351       2.57196264      -4.84369656
C       -1.80185897      -1.80185897      -1.80185897
H       -2.50391578      -2.42517244      -1.25876270
C       -1.21108115      -2.36658860      -3.05846627
C       -2.23584979      -1.26057805      -3.14918047
H       -1.83378987      -0.27959105      -3.40921816
C       -3.65686615      -1.47554311      -3.67310278
H       -4.41758947      -1.31794562      -2.90639956
C       -4.00639186      -2.51044779      -4.71576616
C       -4.05201601      -1.05556651      -5.07463567
H       -3.27004459      -0.68161029      -5.72655196
Br      -5.76009006      -0.24085336      -5.32035614
H       -1.50095693      -3.37389400      -3.33299158
H       -0.18558393      -2.12462511      -3.31339853
H       -4.93721138      -3.05284256      -4.59438056
H       -3.21201765      -3.10374348      -5.15315158
C       -1.80185897       1.80185897       1.80185897
H       -2.23151002       1.29641335       2.65992756
C       -2.63139257       2.86215750       1.14258594
C       -1.42503405       3.26124761       1.95932664
H       -0.56048810       3.58520795       1.37690303
C       -1.52539619       3.96770454       3.31241131
H       -1.14805389       3.35829940       4.13558136
C       -2.65419373       4.90266063       3.67575144
C       -1.28100292       5.45763207       3.44358319
H       -1.12318164       6.02328127       2.53174392
Br      -0.29155061       6.07619197       4.95355698
H       -3.62073081       3.04000640       1.54710530
H       -2.57334202       2.98337382       0.06689172
H       -3.03991642       4.85661575       4.68790233
H       -3.41066419       5.12569559       2.93255293
C        1.80185897      -1.80185897       1.80185897
H        1.96551006      -1.41898976       2.80335111
C        2.93227302      -2.54624750       1.15761549
C        1.71341074      -3.30465592       1.62754164
H        1.04635407      -3.64355542       0.83268958
C        1.72589026      -4.24775230       2.83186948
H        1.09643296      -3.89476042       3.65074127
C        2.94484210      -5.03167847       3.25608524
C        1.77582544      -5.75201948       2.65437327
H        1.89567365      -6.13555841       1.64697478
Br       0.69338447      -6.82818436       3.79973074
H        3.85347381      -2.63289340       1.72147529
H        3.08433046      -2.45074493       0.08853217
H        3.13484403      -5.13075677       4.31883370
H        3.84620318      -4.96442089       2.65828863
C       -0.00445707       0.01189536      -1.78238275
H       -0.66409135       0.67374010      -2.43557963
H        0.65740317      -0.63156657      -2.45157240
C       -0.90989263      -0.90692880      -0.91072765
C        0.90977584       0.90977584      -0.90977584
C       -0.00465871       1.77757030       0.00794375
H       -0.66225468       2.44313916      -0.64384735
H        0.64322798       2.43503045       0.67728295
C       -1.78241447       0.00034974      -0.00472694
H       -2.45427497      -0.65498947       0.64260836
H       -2.43311707       0.67328779      -0.65473579
C       -0.91132561       0.90220522       0.91563759
C       -0.01476271      -0.02253852       1.78660255
H       -0.67934791      -0.69751639       2.42135241
H        0.63392994       0.61504881       2.47327442
C        0.01484550      -1.77751727      -0.01636693
H        0.67870853      -2.42144646      -0.68295456
H       -0.62264859      -2.45592969       0.64226336
C        1.78714474       0.01002794       0.00389507
H        2.44202412       0.67113390       0.66197326
H        2.45385902      -0.65136977      -0.64189061
C        0.91606151      -0.90478549       0.90901405
