90
Properties=species:S:1:pos:R:3 pbc="F F F"
C        1.80185897       1.80185897      -1.80185897
H        2.00602373       2.78645964      -1.39536755
C        1.65734778       1.68917314      -3.28961510
C        2.89190410       1.13618957      -2.61751464
H        2.92937675       0.04759641      -2.54562592
C        4.27779148       1.76789916      -2.75982139
H        4.65910593       2.16534746      -1.81748126
C        4.72385335       2.51435780      -3.99439466
C        5.32277240       1.17553614      -3.68390965
H        5.02481632       0.34233379      -4.31105673
H        1.73882236       2.60314200      -3.86587814
H        0.94604522       0.98005258      -3.69750976
H        5.32455893       3.40587060      -3.85400498
H        4.05325351       2.57196264      -4.84369656
C        6.68675795       1.13057423      -3.22442970
C        7.82909586       1.09291863      -2.83961524
Br       9.67615963       1.03203272      -2.21740280
C       -1.80185897      -1.80185897      -1.80185897
H       -1.61966017      -1.70183397      -2.86635679
C       -3.21399076      -2.05487444      -1.36727081
C       -2.19724255      -3.16852528      -1.27984047
H       -1.85239507      -3.39989571      -0.27030830
C       -2.21660367      -4.39477072      -2.19413765
H       -1.34596471      -4.44548924      -2.85048071
C       -3.48515011      -4.97694318      -2.77051252
C       -2.74184901      -5.73111706      -1.70925212
H       -3.18927042      -5.76702523      -0.72191119
H       -3.97087614      -2.09539667      -2.14156969
H       -3.56517381      -1.61999770      -0.43843605
H       -3.45460688      -5.33726469      -3.79256293
H       -4.43683781      -4.53943467      -2.49264023
C       -2.02711753      -6.92049074      -2.09415361
C       -1.42852992      -7.91659120      -2.41650862
Br      -0.46066437      -9.52720139      -2.93772939
C       -1.80185897       1.80185897       1.80185897
H       -1.32756406       2.14560994       2.71467692
C       -3.27024255       1.50607205       1.85982141
C       -2.78656664       2.73399706       1.12504461
H       -2.82243543       2.66388190       0.03628175
C       -3.01277225       4.15868281       1.63405698
H       -2.08216913       4.66706438       1.89270114
C       -4.21098959       4.56152068       2.46009554
C       -4.09316210       5.04361578       1.04544031
H       -4.76173689       4.60197061       0.31449934
H       -3.76269270       1.62787728       2.81727252
H       -3.66671431       0.68898712       1.26790614
H       -4.05048150       5.26288296       3.27107004
H       -4.97608362       3.82322872       2.66960036
C       -3.78541252       6.43274470       0.82360467
C       -3.52767225       7.59614016       0.63781732
Br      -3.11092803       9.47725224       0.33741489
C        1.80185897      -1.80185897       1.80185897
H        2.73391087      -1.34198980       2.11195026
C        1.81741481      -3.27787699       1.54084421
C        1.12473086      -2.74710580       2.77377165
H        0.03403034      -2.75794879       2.73061994
C        1.66294807      -2.95157430       4.19098967
H        1.95615935      -2.01569499       4.67008031
C        2.46971285      -4.15969633       4.60319662
C        1.07052036      -3.99573776       5.11596007
H        0.31319251      -4.65657170       4.70844263
H        2.76550991      -3.79058861       1.65174398
H        1.19633908      -3.67915509       0.74811339
H        3.30123908      -4.00238000       5.28081542
H        2.64270063      -4.94713587       3.87907621
C        0.89021910      -3.64950416       6.50203862
C        0.73921680      -3.35953352       7.66287941
Br       0.49505886      -2.89067552       9.53986078
C       -0.00445707       0.01189536      -1.78238275
H       -0.66409135       0.67374010      -2.43557963
H        0.65740317      -0.63156657      -2.45157240
C       -0.90989263      -0.90692880      -0.91072765
C        0.90977584       0.90977584      -0.90977584
C       -0.00465871       1.77757030       0.00794375
H       -0.66225468       2.44313916      -0.64384735
H        0.64322798       2.43503045       0.67728295
C       -1.78241447       0.00034974      -0.00472694
H       -2.45427497      -0.65498947       0.64260836
H       -2.43311707       0.67328779      -0.65473579
C       -0.91132561       0.90220522       0.91563759
C       -0.01476271      -0.02253852       1.78660255
H       -0.67934791      -0.69751639       2.42135241
H        0.63392994       0.61504881       2.47327442
C        0.01484550      -1.77751727      -0.01636693
H        0.67870853      -2.42144646      -0.68295456
H       -0.62264859      -2.45592969       0.64226336
C        1.78714474       0.01002794       0.00389507
H        2.44202412       0.67113390       0.66197326
H        2.45385902      -0.65136977      -0.64189061
C        0.91606151      -0.90478549       0.90901405
