85
Properties=species:S:1:pos:R:3 pbc="F F F"
C        0.00000000       0.00000000       0.00000000
C        0.89467322       0.89467322      -0.89467322
H        1.22433715       1.81388203      -0.42417405
C        0.57962016       0.93769974      -2.36330776
C        1.81662141       0.22261820      -1.87888614
H        1.79475975      -0.86329320      -1.92200533
C        3.08031766       0.81278857      -2.20938918
C        4.10971857       1.28730381      -2.60641344
C        5.36401820       1.86246192      -3.26430123
C        6.28112276       2.28088591      -3.91292948
C        7.31298421       2.74647127      -4.79396839
H        7.71217158       1.99030387      -5.46409996
C        8.27864351       3.80669482      -4.34218756
C        7.19696823       4.15647084      -5.32458890
H        6.38444323       4.77692187      -4.96156122
H        0.68948616       1.89107715      -2.86939717
H       -0.22666073       0.32954969      -2.75648647
H        9.30165552       3.73654297      -4.69569954
H        8.19336205       4.19926068      -3.33555359
C        7.56415444       4.38859544      -6.69750275
C        7.87167289       4.58299980      -7.84731811
Br       8.36890422       4.89733520      -9.70647229
C       -0.89467322      -0.89467322      -0.89467322
H       -0.36046055      -1.66964262      -1.43229006
C       -2.05405359      -0.23758691      -1.58898717
C       -2.30162509      -1.17964641      -0.43685426
H       -2.62414507      -0.72626354       0.49693673
C       -2.92512728      -2.43313031      -0.74423781
C       -3.54727578      -3.41729872      -1.03886132
C       -4.45953262      -4.56831660      -1.46293213
C       -5.27473923      -5.36385322      -1.83634571
C       -6.32657322      -6.21609731      -2.31075335
H       -7.27619377      -6.09265809      -1.79772355
C       -6.01823709      -7.60106176      -2.80822705
C       -6.36829847      -6.51929905      -3.79043045
H       -5.56498309      -6.14299368      -4.41494955
H       -2.28527994      -0.56870863      -2.59597192
H       -2.25078435       0.81529680      -1.42388788
H       -6.74655945      -8.37943383      -2.60790475
H       -4.99247878      -7.95033251      -2.78536503
C       -7.65777395      -6.56252959      -4.42994910
C       -8.73770967      -6.59873516      -4.96554597
Br     -10.48387439      -6.65727651      -5.83156080
C       -0.89467322       0.89467322       0.89467322
H       -1.50565592       0.35080077       1.60593654
C       -1.48385506       2.12746612       0.26930648
C       -0.37706964       2.25434859       1.28670752
H        0.59817398       2.54612790       0.90551795
C       -0.72247411       2.82435957       2.55566173
C       -1.03942283       3.40720490       3.55680810
C       -1.47910663       4.27755997       4.73411475
C       -1.85280829       5.06791802       5.55421184
C       -2.31738328       6.09691602       6.43912457
H       -1.74612767       7.02015755       6.40029018
C       -2.91164465       5.74200283       7.77387842
C       -3.80771599       6.20857027       6.66174172
H       -4.45264278       5.46541147       6.20487207
H       -2.49417126       2.39870101       0.55708821
H       -1.24656835       2.37224034      -0.75943326
H       -2.71729406       6.41302610       8.60357787
H       -2.96623976       4.69888639       8.06305018
C       -4.37618612       7.52898546       6.74508107
C       -4.85227985       8.63483318       6.81487777
Br      -5.62208316      10.42289541       6.92773314
C        0.89467322      -0.89467322       0.89467322
H        1.95707661      -0.69809101       0.80722561
C        0.46409900      -2.32012296       1.09640570
C        0.35441179      -1.33227439       2.23143958
H       -0.64930665      -1.00835012       2.49442841
C        1.23725027      -1.52040293       3.34484220
C        1.91918329      -1.78753472       4.29671782
C        2.70434885      -2.27004806       5.51638444
C        3.23512424      -2.77425647       6.46555744
C        3.79024355      -3.47707686       7.58610347
H        3.07382980      -3.73016788       8.36257773
C        5.19181918      -3.18825282       8.04745390
C        4.89964047      -4.46578838       7.31259913
H        5.27676898      -4.54748394       6.29867340
H        1.24173599      -3.07584244       1.13238206
H       -0.45858983      -2.66978538       0.64817988
H        5.38795234      -3.23265611       9.11328958
H        5.76782416      -2.42882481       7.53152735
C        4.89583787      -5.70001703       8.05439774
C        4.89265320      -6.73368353       8.67565407
Br       4.88750385      -8.40503482       9.68017303
