54
Properties=species:S:1:pos:R:3 pbc="F F F"
C        1.80203655       1.80203655      -1.80203655
C        2.03124138       1.50477855      -3.26098236
Br       1.23890146       0.00145434      -4.12925920
C        1.21304243       2.70928638      -2.85724505
Cl      -0.51825953       2.77841649      -3.14324195
Cl       1.98341061       4.29622734      -3.05966232
H        2.65952443       2.18266223      -1.25743143
H        3.03222418       1.69893712      -3.63078927
C       -1.80203655      -1.80203655      -1.80203655
C       -2.97163476      -2.57486744      -1.25050008
Br      -3.44916247      -2.51664359       0.59619106
C       -3.21149653      -1.39916465      -2.16891269
Cl      -3.92022807       0.09509703      -1.57826786
Cl      -3.74070724      -1.77753140      -3.82106163
H       -1.22450698      -2.30442612      -2.57068499
H       -3.12715201      -3.56152953      -1.67326903
C       -1.80203655       1.80203655       1.80203655
C       -2.13860800       3.22372023       1.43467405
Br      -1.49120329       4.04169659      -0.16328487
C       -3.21408900       2.16277181       1.40271306
Cl      -3.90807249       1.60706123      -0.11173481
Cl      -4.41899338       2.21438111       2.70592579
H       -1.62774751       1.61551478       2.85635580
H       -2.17518410       3.92822932       2.25853715
C        1.80203655      -1.80203655       1.80203655
C        2.21576275      -1.39039103       3.19084851
Br       1.67260249       0.26739907       3.96441158
C        1.24504195      -2.53284891       3.00168301
Cl      -0.44355106      -2.38588239       3.46106757
Cl       1.87422894      -4.16649501       3.29857632
H        2.55425683      -2.32458516       1.22077610
H        3.22714602      -1.65476291       3.48004164
C       -0.00445707       0.01189536      -1.78238275
H       -0.66409135       0.67374010      -2.43557963
H        0.65740317      -0.63156657      -2.45157240
C       -0.90989263      -0.90692880      -0.91072765
C        0.90977584       0.90977584      -0.90977584
C       -0.00465871       1.77757030       0.00794375
H       -0.66225468       2.44313916      -0.64384735
H        0.64322798       2.43503045       0.67728295
C       -1.78241447       0.00034974      -0.00472694
H       -2.45427497      -0.65498947       0.64260836
H       -2.43311707       0.67328779      -0.65473579
C       -0.91132561       0.90220522       0.91563759
C       -0.01476271      -0.02253852       1.78660255
H       -0.67934791      -0.69751639       2.42135241
H        0.63392994       0.61504881       2.47327442
C        0.01484550      -1.77751727      -0.01636693
H        0.67870853      -2.42144646      -0.68295456
H       -0.62264859      -2.45592969       0.64226336
C        1.78714474       0.01002794       0.00389507
H        2.44202412       0.67113390       0.66197326
H        2.45385902      -0.65136977      -0.64189061
C        0.91606151      -0.90478549       0.90901405
