90
Properties=species:S:1:pos:R:3 pbc="F F F"
C        1.80363927       1.80363927      -1.80363927
H        1.57787186       2.85938911      -1.70260591
C        2.13934526       1.28739070      -3.18724937
H        1.85109770       0.25224703      -3.38278500
C        3.22523531       1.43899791      -2.13647358
Cl       4.37882096       2.76573789      -2.30524698
Cl       3.96906321      -0.03394583      -1.52996569
C        2.03724279       2.18051785      -4.43606823
H        1.91343571       3.23760568      -4.19073073
C        1.33259416       1.71922300      -5.69556468
H        0.98576559       0.69207188      -5.72454208
C        2.82330742       1.92945235      -5.71099231
Cl       3.55403988       3.32406906      -6.49303587
Cl       3.83907144       0.48743040      -5.80171821
C        0.42357746       2.64762137      -6.31634250
C       -0.33772403       3.42515500      -6.83624392
Br      -1.56868414       4.68236113      -7.67688056
C       -1.80363927      -1.80363927      -1.80363927
H       -2.79737822      -1.39446604      -1.94802261
C       -1.68086379      -3.30309659      -1.63002495
H       -0.85520294      -3.63442360      -0.99650318
C       -1.24044337      -2.63798267      -2.92228076
Cl      -2.24678980      -2.84395987      -4.35905615
Cl       0.47864788      -2.65379510      -3.28993585
C       -2.91646537      -4.21390987      -1.52345363
H       -3.84275166      -3.70323908      -1.79578137
C       -3.04783993      -5.26216340      -0.43737850
H       -2.19129733      -5.41993326       0.20885105
C       -2.89930753      -5.69178891      -1.87265564
Cl      -4.25765476      -6.31524934      -2.79824071
Cl      -1.36258620      -6.42746635      -2.33816750
C       -4.30814469      -5.33480597       0.25540933
C       -5.36364992      -5.39564412       0.83561914
Br      -7.07031261      -5.49401426       1.77376933
C       -1.80363927       1.80363927       1.80363927
H       -1.89688886       2.81612344       1.42685458
C       -1.69053691       1.62069975       3.30274867
H       -1.09986660       0.76063951       3.62562361
C       -2.97209867       1.25290912       2.57569900
Cl      -4.37847576       2.30404205       2.76728802
Cl      -3.40159912      -0.45074757       2.51423151
C       -1.57366279       2.81795868       4.26220739
H       -1.79332642       3.77149350       3.77695220
C       -0.52338180       2.87103766       5.35296237
H        0.08533667       1.98589765       5.50181856
C       -1.97807837       2.76075030       5.72492341
Cl      -2.87686178       4.12936973       6.36491330
Cl      -2.52557573       1.21700803       6.38563628
C        0.21104048       4.10123111       5.49735069
C        0.82611914       5.13151813       5.61827591
Br       1.82064931       6.79740509       5.81380176
C        1.80363927      -1.80363927       1.80363927
H        2.79152573      -1.38577636       1.96256479
C        1.69827169      -3.30239352       1.61332012
H        0.88267361      -3.63559626       0.96785985
C        1.23766472      -2.65533741       2.90770466
Cl       2.23124714      -2.86588034       4.35267835
Cl      -0.48486476      -2.69268271       3.25726512
C        2.94431832      -4.19927226       1.51023829
H        3.86238503      -3.68194914       1.79743795
C        3.09777647      -5.23475626       0.41484911
H        2.24962446      -5.39460629      -0.24185121
C        2.93894705      -5.68080409       1.84400095
Cl       4.29410336      -6.29983912       2.77720233
Cl       1.40525229      -6.43707715       2.28589061
C        4.36583842      -5.28719835      -0.26549544
C        5.42784031      -5.33111860      -0.83528401
Br       7.14500753      -5.40213393      -1.75658392
C       -0.00445707       0.01189536      -1.78238275
H       -0.66409135       0.67374010      -2.43557963
H        0.65740317      -0.63156657      -2.45157240
C       -0.90989263      -0.90692880      -0.91072765
C        0.90977584       0.90977584      -0.90977584
C       -0.00465871       1.77757030       0.00794375
H       -0.66225468       2.44313916      -0.64384735
H        0.64322798       2.43503045       0.67728295
C       -1.78241447       0.00034974      -0.00472694
H       -2.45427497      -0.65498947       0.64260836
H       -2.43311707       0.67328779      -0.65473579
C       -0.91132561       0.90220522       0.91563759
C       -0.01476271      -0.02253852       1.78660255
H       -0.67934791      -0.69751639       2.42135241
H        0.63392994       0.61504881       2.47327442
C        0.01484550      -1.77751727      -0.01636693
H        0.67870853      -2.42144646      -0.68295456
H       -0.62264859      -2.45592969       0.64226336
C        1.78714474       0.01002794       0.00389507
H        2.44202412       0.67113390       0.66197326
H        2.45385902      -0.65136977      -0.64189061
C        0.91606151      -0.90478549       0.90901405
