106
Properties=species:S:1:pos:R:3 pbc="F F F"
C        1.80436765       1.80436765      -1.80436765
H        2.54138181       1.23655490      -2.36272756
C        2.21957367       3.14819131      -1.25252386
H        1.76822380       3.46195039      -0.31561998
C        1.29063579       3.06945193      -2.44397916
Cl       1.88646965       3.44739366      -4.06458199
Cl      -0.37163916       3.60714200      -2.20226863
C        3.59694354       3.53344039      -1.39218289
C        4.75332559       3.83254813      -1.49680939
C        6.23969340       4.18127667      -1.62353093
C        7.41150604       4.42559251      -1.71764014
C        8.81968804       4.68864840      -1.81842431
H        9.32505992       4.74362559      -0.85809253
C        9.30571609       5.61705182      -2.90624125
H        8.57268233       5.98195229      -3.61817096
C        9.63788924       4.14649923      -2.97029920
Cl      11.25378333       3.54865077      -2.59228028
Cl       8.86303665       3.20833664      -4.25391427
C       10.29253109       6.60163148      -2.54513316
C       11.11898865       7.42621695      -2.24270514
Br      12.45530063       8.75950191      -1.75370461
C       -1.80436765      -1.80436765      -1.80436765
H       -1.73280360      -2.85697891      -1.55088176
C       -1.91771890      -1.43703554      -3.26553439
H       -1.46719404      -0.49962738      -3.57897276
C       -3.12238909      -1.32430201      -2.35737577
Cl      -4.42875778      -2.51058347      -2.45910405
Cl      -3.72086549       0.29931493      -2.01622090
C       -1.79683069      -2.49251950      -4.23321663
C       -1.67280863      -3.37980556      -5.03006892
C       -1.48895250      -4.52746783      -6.02808066
C       -1.32374980      -5.43884077      -6.79214811
C       -1.09978203      -6.53729248      -7.68968624
H       -0.20032429      -6.43567657      -8.29077719
C       -2.29388130      -7.19229395      -8.34283391
H       -3.27923131      -6.85384475      -8.03972953
C       -1.49186751      -7.94963478      -7.31318539
Cl      -0.38028577      -9.23881217      -7.77561644
Cl      -2.28418001      -8.27530483      -5.76580272
C       -2.19881913      -7.49249388      -9.74798272
C       -2.11920457      -7.74391132     -10.92479486
Br      -1.99047455      -8.15043205     -12.82760054
C       -1.80436765       1.80436765       1.80436765
H       -2.64840678       1.26749455       2.22476294
C       -2.02614378       3.23197594       1.36216911
H       -1.44877548       3.58467347       0.51234523
C       -1.24223354       2.93930039       2.62253294
Cl      -1.96895893       3.22043336       4.20905302
Cl       0.48052937       3.31658943       2.60171140
C       -3.36680447       3.74729598       1.40846637
C       -4.49336672       4.15708147       1.43223492
C       -5.94402877       4.64919550       1.45127672
C       -7.09003103       5.00743353       1.45727412
C       -8.46883058       5.40890112       1.44902905
H       -8.86067726       5.61032203       0.45577875
C       -8.97657534       6.27448153       2.57795229
H       -8.29222989       6.48816252       3.39241317
C       -9.45433073       4.84873323       2.45162372
Cl     -11.07060044       4.46687034       1.85724359
Cl      -8.91587112       3.71323619       3.69618024
C       -9.81915241       7.38942278       2.23072054
C      -10.52481071       8.32318608       1.93991395
Br     -11.66580050       9.83300235       1.46970429
C        1.80436765      -1.80436765       1.80436765
H        1.79147427      -2.84655637       1.50263363
C        1.83772174      -1.49888884       3.28367824
H        1.33216268      -0.59695991       3.61667158
C        3.07420335      -1.29324881       2.43661472
Cl       4.42722814      -2.42532370       2.54589346
Cl       3.61288146       0.36848278       2.19337278
C        1.72293277      -2.60126580       4.19836824
C        1.60480059      -3.52818928       4.94969324
C        1.43002151      -4.72665723       5.88782225
C        1.27329535      -5.67791924       6.60352410
C        1.06060320      -6.82446648       7.44169107
H        0.13232556      -6.78910331       8.00534917
C        2.25372717      -7.45607601       8.11920598
H        3.23495732      -7.06198902       7.87585925
C        1.53202766      -8.20007638       7.02258363
Cl       0.46089090      -9.55568843       7.37813505
Cl       2.40440897      -8.42092148       5.49995711
C        2.11166582      -7.82330158       9.50432834
C        1.99268943      -8.13085299      10.66436832
Br       1.80031468      -8.62813762      12.54005485
C       -0.00445707       0.01189536      -1.78238275
H       -0.66409135       0.67374010      -2.43557963
H        0.65740317      -0.63156657      -2.45157240
C       -0.90989263      -0.90692880      -0.91072765
C        0.90977584       0.90977584      -0.90977584
C       -0.00465871       1.77757030       0.00794375
H       -0.66225468       2.44313916      -0.64384735
H        0.64322798       2.43503045       0.67728295
C       -1.78241447       0.00034974      -0.00472694
H       -2.45427497      -0.65498947       0.64260836
H       -2.43311707       0.67328779      -0.65473579
C       -0.91132561       0.90220522       0.91563759
C       -0.01476271      -0.02253852       1.78660255
H       -0.67934791      -0.69751639       2.42135241
H        0.63392994       0.61504881       2.47327442
C        0.01484550      -1.77751727      -0.01636693
H        0.67870853      -2.42144646      -0.68295456
H       -0.62264859      -2.45592969       0.64226336
C        1.78714474       0.01002794       0.00389507
H        2.44202412       0.67113390       0.66197326
H        2.45385902      -0.65136977      -0.64189061
C        0.91606151      -0.90478549       0.90901405
