85
Properties=species:S:1:pos:R:3 pbc="F F F"
C        0.00000000       0.00000000       0.00000000
C        0.89446363       0.89446363      -0.89446363
H        1.63147779       0.32665088      -1.45282354
C        1.30966964       2.23828728      -0.34261983
H        0.85831978       2.55204636       0.59428404
C        0.38073177       2.15954790      -1.53407514
Cl       0.97656562       2.53748963      -3.15467797
Cl      -1.28154319       2.69723797      -1.29236460
C        2.68703951       2.62353637      -0.48227886
C        3.84342157       2.92264410      -0.58690537
C        5.32978937       3.27137264      -0.71362690
C        6.50160202       3.51568848      -0.80773611
C        7.90978402       3.77874437      -0.90852029
H        8.41515590       3.83372156       0.05181149
C        8.39581207       4.70714779      -1.99633722
H        7.66277830       5.07204827      -2.70826694
C        8.72798522       3.23659521      -2.06039518
Cl      10.34387931       2.63874674      -1.68237626
Cl       7.95313263       2.29843261      -3.34401024
C        9.38262707       5.69172745      -1.63522914
C       10.20908463       6.51631292      -1.33280112
Br      11.54539660       7.84959788      -0.84380058
C       -0.89446363      -0.89446363      -0.89446363
H       -1.41316097      -1.66466884      -0.33312239
C       -0.37183677      -1.25265273      -2.26608725
H        0.54127617      -0.76382400      -2.59353427
C       -1.58732235      -0.36325124      -2.12378121
Cl      -3.20034785      -0.99681482      -2.47157056
Cl      -1.41147102       1.32082120      -2.61740956
C       -0.48233539      -2.62162944      -2.68888991
C       -0.56174885      -3.77130021      -3.01992199
C       -0.65497896      -5.24986297      -3.40994699
C       -0.72175536      -6.41625208      -3.68701917
C       -0.78877234      -7.81844542      -3.98983091
H        0.18397974      -8.29242191      -4.08862380
C       -1.88954642      -8.30973911      -4.90001155
H       -2.63367855      -7.58829023      -5.22112474
C       -1.89882654      -8.68711865      -3.43903041
Cl      -1.45504664     -10.30771927      -2.90223640
Cl      -3.17559494      -7.97992846      -2.44005208
C       -1.52958960      -9.25548079      -5.92451327
C       -1.22812577     -10.04753944      -6.78253346
Br      -0.74068424     -11.32823130      -8.16987953
C       -0.89446363       0.89446363       0.89446363
H       -0.36672789       1.75767173       1.28655257
C       -1.88697704       0.20346891       1.80013081
H       -2.00309391      -0.87021396       1.68320215
C       -2.37330187       1.05379725       0.64725568
Cl      -3.06904467       2.65031860       0.94936996
Cl      -3.17363042       0.21851463      -0.68408566
C       -1.97764542       0.65326722       3.16194210
C       -2.02744113       1.02461907       4.30091084
C       -2.05596504       1.50273109       5.75609278
C       -2.04830740       1.88113319       6.89558603
C       -2.00710436       2.33126897       8.25867534
H       -1.66172314       1.57599793       8.95934490
C       -3.08158078       3.27724962       8.74046668
H       -3.79467777       3.64061212       8.00780362
C       -1.66011743       3.76399425       8.60086392
Cl      -0.63147180       4.02340030      10.01013021
Cl      -1.34081685       4.93780562       7.31695301
C       -3.66868088       3.01248657      10.02841621
C       -4.16037721       2.79074751      11.10707395
Br      -4.95540858       2.43221421      12.85117227
C        0.89446363      -0.89446363       0.89446363
H        1.46618939      -1.61982031       0.32494250
C        0.33322332      -1.32915845       2.22819499
H       -0.61145546      -0.89068240       2.53685516
C        1.51575784      -0.38731774       2.17127923
Cl       3.13848113      -0.97041748       2.55983462
Cl       1.25139386       1.26675221       2.72341773
C        0.48316153      -2.70893555       2.60075767
C        0.59666822      -3.86721630       2.88908653
C        0.73517031      -5.35573472       3.22388389
C        0.83888075      -6.52898575       3.45716011
C        0.95151654      -7.93870655       3.70682558
H       -0.00405323      -8.45441633       3.74670287
C        2.03474484      -8.42315075       4.64140150
H        2.73529111      -7.68668332       5.02111908
C        2.11727107      -8.73943590       3.16826863
Cl       1.76210714     -10.35284733       2.55004784
Cl       3.40233899      -7.94183967       2.25139683
C        1.67380212      -9.42373044       5.61205110
C        1.37151260     -10.26171592       6.42497014
Br       0.88273601     -11.61666759       7.73939147
