170
Properties=species:S:1:pos:R:3 pbc="F F F"
C        1.82746245       1.82746245      -1.82746245
C        2.04721335       1.14223922      -3.17148013
C        2.91253390       1.94702279      -4.17449111
C        2.24758851       3.22910764      -4.50324323
C        1.69239867       4.26441659      -4.74907598
C        0.96141956       5.57918955      -5.03255487
C        0.36909950       6.60375327      -5.22913305
C       -0.37852005       7.86316702      -5.45252470
C       -0.51399681       8.64678876      -4.12234736
C       -1.29305099       7.92095594      -3.03140255
C        0.40583218       8.73012787      -6.45493122
C       -1.75418153       7.53670510      -6.05565696
C        4.31361689       2.22852782      -3.60905999
C        3.05911629       1.12311528      -5.46743200
H        2.75619598       1.96866406      -1.27009367
H        1.30152782       2.78086248      -1.91920719
H        1.06888366       0.93170453      -3.62694396
H        2.51556785       0.16313813      -2.99983882
H       -0.99931365       9.61182644      -4.32407580
H        0.48879354       8.88849694      -3.74179982
H       -0.82296995       6.98206392      -2.72901395
H       -2.33514880       7.74245273      -3.30579314
H        0.54095189       8.21220725      -7.41212518
H        1.40504355       8.97476917      -6.07498869
H       -0.11576837       9.67271551      -6.65626392
H       -1.65259369       7.06419207      -7.04037272
H       -2.35555084       8.44377329      -6.18240832
H       -2.32126532       6.83848585      -5.42996739
H        4.81005048       1.30061125      -3.30377330
H        4.27942419       2.89611508      -2.74094915
H        4.95135373       2.71683417      -4.35609021
H        3.55255060       0.16418636      -5.27239214
H        3.65365474       1.65820837      -6.21771605
H        2.08237397       0.91143171      -5.91891964
C       -1.33696306       8.74061524      -1.84825827
C       -1.37373941       9.42707989      -0.85737494
Br      -1.43320366      10.53703519       0.74479960
C       -1.82746245      -1.82746245      -1.82746245
C       -2.18846613      -1.07135485      -3.10111172
C       -3.06771953      -1.86721435      -4.09911392
C       -2.34375939      -3.07338893      -4.56279106
C       -1.73959251      -4.04740507      -4.91889367
C       -0.94448054      -5.28440168      -5.34428177
C       -0.30054731      -6.24835676      -5.65308174
C        0.51173126      -7.43308914      -6.01581380
C        0.79446063      -8.29224154      -4.75735839
C        1.59945880      -7.58702812      -3.67173818
C       -0.28273943      -8.28505589      -7.02309595
C        1.81561990      -6.96911341      -6.68468701
C       -4.40262162      -2.28575093      -3.46283215
C       -3.36152529      -0.97125998      -5.31687830
H       -2.70226464      -2.07193680      -1.22075227
H       -1.24683457      -2.73237821      -2.02238470
H       -1.26163513      -0.76114394      -3.60475309
H       -2.70777861      -0.14207789      -2.82868829
H        1.32755316      -9.20429185      -5.05984989
H       -0.16000248      -8.63021630      -4.32887152
H        1.09050206      -6.70664157      -3.27196841
H        2.60488818      -7.31623807      -4.00174717
H       -0.52056315      -7.71526204      -7.92945913
H       -1.23348791      -8.62565229      -6.59566120
H        0.28498740      -9.17218725      -7.32601121
H        1.61223054      -6.44025954      -7.62394211
H        2.46570504      -7.82016453      -6.91617128
H        2.37813181      -6.27544986      -6.04986987
H       -4.93686109      -1.41837194      -3.05920198
H       -4.26161262      -3.00576895      -2.64910686
H       -5.05820355      -2.76746302      -4.19861154
H       -3.90276721      -0.06542377      -5.02093812
H       -3.97121919      -1.49621522      -6.06214476
H       -2.43606556      -0.66028580      -5.81637396
C        1.78292630      -8.47877333      -2.55606343
C        1.93658034      -9.22560994      -1.62168582
Br       2.18502591     -10.43318158      -0.11087626
C       -1.82746245       1.82746245       1.82746245
C       -1.53544515       3.29416941       1.53131815
C       -2.38485016       4.30099591       2.34820173
C       -3.82141336       4.12594070       2.03258531
C       -4.97977242       3.96097404       1.76514479
C       -6.44817158       3.71718271       1.40780969
C       -7.59037647       3.49793277       1.11367658
C       -8.99340042       3.20573768       0.73803358
C       -9.36217444       1.75467325       1.13829161
C       -8.54116408       0.67378685       0.44435657
C       -9.91848222       4.17440625       1.49800281
C       -9.17332008       3.43594108      -0.77108064
C       -2.16852005       4.12331699       3.85936765
C       -1.96522988       5.72967599       1.95475770
H       -1.58833391       1.55007229       2.85654751
H       -2.85797485       1.54607075       1.59755189
H       -1.69129242       3.47773016       0.45850958
H       -0.47044861       3.49012759       1.71796860
H      -10.42669731       1.58484927       0.92504201
H       -9.25182094       1.64098640       2.22628295
H       -7.47483458       0.73973122       0.67354212
H       -8.68791936       0.66316652      -0.63798881
H       -9.68746698       5.21937595       1.25844139
H       -9.81183076       4.05957888       2.58339176
H      -10.97010405       3.99858085       1.24452616
H       -9.00006341       4.48654698      -1.03463928
H      -10.18783327       3.17530719      -1.09250969
H       -8.46713602       2.84359886      -1.36354696
H       -1.10567135       4.19184645       4.11691722
H       -2.54230407       3.15739944       4.21678492
H       -2.69937042       4.89597175       4.42893593
H       -0.90653804       5.90673669       2.17585437
H       -2.55016092       6.48226328       2.49715496
H       -2.11848951       5.91026144       0.88397437
C       -8.96613996      -0.62176676       0.90753725
C       -9.32205726      -1.70679291       1.29545108
Br      -9.89754543      -3.46118842       1.92267492
C        1.82746245      -1.82746245       1.82746245
C        1.31958694      -3.26403884       1.77730692
C        2.14517500      -4.27210405       2.61676875
C        3.53401072      -4.33960212       2.10632653
C        4.65498977      -4.37221551       1.67868596
C        6.07768732      -4.38173300       1.11374367
C        7.18570595      -4.36201726       0.65426261
C        8.54753212      -4.31707397       0.07256559
C        9.14347043      -2.89385596       0.21781291
C        8.37203940      -1.80194144      -0.51467335
C        9.44419139      -5.30519432       0.84150556
C        8.48512438      -4.75315198      -1.40009584
C        2.16566403      -3.88229328       4.10324738
C        1.50296893      -5.66538386       2.48131077
H        1.77034773      -1.39549985       2.82910612
H        2.84232085      -1.72320849       1.43606815
H        1.30024279      -3.59751360       0.72977576
H        0.27525387      -3.28482104       2.11846989
H       10.18041978      -2.90194244      -0.14577364
H        9.20108574      -2.63354072       1.28446384
H        7.34825881      -1.68958157      -0.14973246
H        8.36619737      -1.94451369      -1.59761400
H        9.05579097      -6.32898337       0.78050997
H        9.50521999      -5.04459461       1.90498680
H       10.46357423      -5.31050411       0.43913273
H        8.14943103      -5.79349270      -1.49095263
H        9.46892460      -4.67825967      -1.87655351
H        7.78090601      -4.14490680      -1.97862490
H        1.14895323      -3.76948820       4.49599359
H        2.70114914      -2.94171580       4.27362349
H        2.67232952      -4.64599662       4.70595197
H        0.47196044      -5.66426284       2.85290581
H        2.06143022      -6.42025716       3.04789178
H        1.48172961      -5.99532543       1.43567029
C        9.01296315      -0.53168169      -0.29273438
C        9.54973679       0.53216086      -0.10686051
Br      10.41765437       2.25230427       0.19368184
C       -0.00445707       0.01189536      -1.78238275
H       -0.66409135       0.67374010      -2.43557963
H        0.65740317      -0.63156657      -2.45157240
C       -0.90989263      -0.90692880      -0.91072765
C        0.90977584       0.90977584      -0.90977584
C       -0.00465871       1.77757030       0.00794375
H       -0.66225468       2.44313916      -0.64384735
H        0.64322798       2.43503045       0.67728295
C       -1.78241447       0.00034974      -0.00472694
H       -2.45427497      -0.65498947       0.64260836
H       -2.43311707       0.67328779      -0.65473579
C       -0.91132561       0.90220522       0.91563759
C       -0.01476271      -0.02253852       1.78660255
H       -0.67934791      -0.69751639       2.42135241
H        0.63392994       0.61504881       2.47327442
C        0.01484550      -1.77751727      -0.01636693
H        0.67870853      -2.42144646      -0.68295456
H       -0.62264859      -2.45592969       0.64226336
C        1.78714474       0.01002794       0.00389507
H        2.44202412       0.67113390       0.66197326
H        2.45385902      -0.65136977      -0.64189061
C        0.91606151      -0.90478549       0.90901405
