105
Properties=species:S:1:pos:R:3 pbc="F F F"
C        0.00000000       0.00000000       0.00000000
C        0.88175309       0.88175309      -0.88175309
C        0.83794061       0.73880709      -2.26657629
C        1.64503410       1.54531350      -3.07191444
C        2.50467143       2.49492723      -2.49760022
C        2.53221058       2.62903702      -1.10119344
C        1.72369573       1.82395809      -0.29521262
C        3.37631470       3.37330883      -3.36910068
C        4.37058795       2.61477236      -4.22154473
C        5.36100918       1.81736075      -3.62724267
C        6.28070447       1.12186269      -4.41509465
C        6.21873112       1.22535638      -5.80263373
C        5.24704762       2.01803750      -6.40923432
C        4.32633844       2.71184273      -5.62038451
H        0.18365702       0.00458237      -2.72867265
H        1.60566653       1.42359236      -4.15231307
H        3.18472015       3.36089439      -0.63032770
H        1.75878986       1.93963940       0.78476612
H        3.93715074       4.08849154      -2.75347988
H        2.71594263       3.98235337      -3.99979864
H        5.41601092       1.72721711      -2.54415260
H        7.03620337       0.50386756      -3.93735713
H        5.19724399       2.10268636      -7.49149578
H        3.57288381       3.32770148      -6.10696870
C        7.16623599       0.50840082      -6.61615031
C        7.95977133      -0.09204947      -7.29747044
Br       9.24285085      -1.06292680      -8.39910747
C       -0.88175309      -0.88175309      -0.88175309
C       -1.51230392      -0.33440895      -1.99661111
C       -2.31877725      -1.14152398      -2.80196082
C       -2.50434268      -2.49854216      -2.49431405
C       -1.85745001      -3.03449898      -1.37049205
C       -1.04906944      -2.22813344      -0.56566356
C       -3.37394035      -3.37590358      -3.36888027
C       -4.81949178      -2.93535772      -3.45205554
C       -5.61983090      -2.88567375      -2.30010795
C       -6.95485457      -2.48353818      -2.37926906
C       -7.49887956      -2.13478737      -3.61305430
C       -6.72126978      -2.18533325      -4.76771641
C       -5.38543907      -2.58587829      -4.68724831
H       -1.38571631       0.71543479      -2.24663052
H       -2.80934426      -0.70356852      -3.66865919
H       -1.97927872      -4.08412556      -1.11253796
H       -0.55686797      -2.65894764       0.30215248
H       -3.35807225      -4.41263974      -3.00841017
H       -2.92344354      -3.40527270      -4.36937840
H       -5.20350719      -3.15301248      -1.33086095
H       -7.55719689      -2.44462071      -1.47561045
H       -7.14321350      -1.91595712      -5.73225553
H       -4.78944234      -2.62131844      -5.59679322
C       -8.87522880      -1.71959081      -3.69596751
C      -10.02792128      -1.37186369      -3.76540733
Br     -11.89172754      -0.80961835      -3.87768564
C       -0.88175309       0.88175309       0.88175309
C       -0.72232656       2.26522572       0.85577170
C       -1.52885332       3.07055726       1.66285146
C       -2.49501018       2.49748736       2.50470134
C       -2.64554535       1.10251738       2.51437831
C       -1.84043670       0.29657634       1.70585339
C       -3.37339252       3.36906655       3.37626514
C       -2.61672990       4.20105677       4.38911837
C       -1.83785536       3.58608642       5.38167081
C       -1.14409730       4.35509060       6.31847391
C       -1.23083376       5.74436686       6.27152062
C       -2.00505530       6.37136250       5.29790164
C       -2.69712044       5.60135255       4.36009268
H        0.02477621       2.72623781       0.21545045
H       -1.39421536       4.14984297       1.63751364
H       -3.39036162       0.63272993       3.15285069
H       -1.96898089      -0.78231074       1.72699299
H       -4.10213686       2.75540719       3.92157811
H       -3.96736019       4.01441726       2.71631719
H       -1.76087080       2.50145453       5.42505529
H       -0.54052538       3.86147689       7.07542578
H       -2.07661610       7.45504170       5.25976834
H       -3.29847801       6.10376319       3.60531280
C       -0.51564959       6.53846048       7.23667704
C        0.08331714       7.20351389       8.04499555
Br       1.05179570       8.27884901       9.35197821
C        0.88175309      -0.88175309       0.88175309
C        1.59435387      -1.93517948       0.31379064
C        2.39998960      -2.74115630       1.12111614
C        2.49329867      -2.50258281       2.50131740
C        1.77269360      -1.43395004       3.05579740
C        0.96821253      -0.62620195       2.24845195
C        3.36988151      -3.37191917       3.37692353
C        2.97522917      -4.83287384       3.39880203
C        1.71202804      -5.22591997       3.86766458
C        1.35117688      -6.57479994       3.89168499
C        2.25497610      -7.53921853       3.45252660
C        3.51568000      -7.16777430       2.99086513
C        3.87502055      -5.81811413       2.96543100
H        1.52931003      -2.13912043      -0.75151842
H        2.95003165      -3.56332510       0.66821522
H        1.83145557      -1.22321467       4.12127200
H        0.41530813       0.19616518       2.69452018
H        3.36202175      -3.00545314       4.41164727
H        4.40605105      -3.25933497       3.03270862
H        0.99739808      -4.48001793       4.20996463
H        0.36616986      -6.85960604       4.25165215
H        4.22403524      -7.91787419       2.64951671
H        4.86290916      -5.54178786       2.60285698
C        1.88396554      -8.93039792       3.47642366
C        1.57324419     -10.09551066       3.49643745
Br       1.07083406     -11.97939941       3.52879805
