189
Properties=species:S:1:pos:R:3 pbc="F F F"
C        0.00000000       0.00000000       0.00000000
C        0.87856954       0.87856954      -0.87856954
C        0.29977986       1.77208750      -1.77229266
C        1.11052849       2.62056238      -2.53314477
C        2.51364865       2.58348163      -2.42016823
C        3.07245787       1.59733958      -1.59835380
C        2.26574549       0.78101132      -0.79448199
C        3.31718246       3.56269102      -3.26568312
C        4.72298692       3.98381824      -2.87321726
C        5.25778056       3.84624850      -1.59473936
C        6.59994428       4.14843491      -1.33612500
C        7.44904610       4.71429062      -2.30374953
C        6.86057258       4.97810124      -3.55305658
C        5.53266311       4.60706757      -3.83628124
C        8.88603362       4.99271304      -2.00792405
C        9.35687080       5.06349395      -0.68057213
C       10.71100141       5.23834225      -0.37646961
C       11.65425358       5.37843970      -1.39222649
C       11.21122722       5.35154312      -2.71888973
C        9.85486604       5.15080511      -3.01527864
C       13.11629627       5.54976171      -1.05432230
C       13.68279307       6.91206662      -1.37735261
C       13.11816898       8.07581644      -0.83272127
C       13.66073543       9.32992118      -1.12000895
C       14.77889524       9.42537243      -1.94508576
C       15.35843539       8.27924490      -2.48497401
C       14.81315226       7.02623965      -2.19905499
Br      15.51568482      11.12217812      -2.33499293
H       -0.78157571       1.82521950      -1.87832149
H        0.63503904       3.31757408      -3.22016852
H        4.14730902       1.44991153      -1.54426084
H        2.73135041       0.07285619      -0.11221304
H        2.73873240       4.49356068      -3.34051453
H        3.36553708       3.12609905      -4.27210692
H        4.66179647       3.47174903      -0.76713884
H        6.96497008       3.90303276      -0.34591415
H        7.42149554       5.47282511      -4.34193378
H        5.13743631       4.81110083      -4.82947627
H        8.67675083       4.98153401       0.16162615
H       11.01461832       5.25938861       0.66826728
H       11.92039940       5.47318373      -3.53379265
H        9.57623395       5.10766835      -4.06795851
H       13.67699094       4.76286537      -1.57517717
H       13.28269137       5.36066301       0.01711351
H       12.24532805       8.01359743      -0.18607542
H       13.20540798      10.22089816      -0.69547111
H       16.23361338       8.34952436      -3.12508795
H       15.27780353       6.13866559      -2.62353355
C       -0.87856954      -0.87856954      -0.87856954
C       -2.16772654      -1.20354562      -0.47288786
C       -2.99249029      -1.96013044      -1.31161491
C       -2.53915873      -2.41240099      -2.56573879
C       -1.20141643      -2.16804312      -2.89869169
C       -0.38731638      -1.36642070      -2.08750173
C       -3.51392276      -3.20578020      -3.42585364
C       -3.35622546      -3.28936486      -4.93443209
C       -2.59730424      -2.40479355      -5.69667062
C       -2.40345745      -2.61385926      -7.06718747
C       -3.04840965      -3.64364268      -7.77503391
C       -3.92187801      -4.44782186      -7.02203053
C       -4.06065172      -4.28447504      -5.63088516
C       -2.79374396      -3.86288692      -9.23003984
C       -2.21697247      -2.85450788     -10.02945654
C       -1.88997797      -3.06226951     -11.37356580
C       -2.15254430      -4.28527965     -11.98709581
C       -2.76030088      -5.29200352     -11.22935566
C       -3.06207031      -5.08352959      -9.87534990
C       -1.78038899      -4.50584680     -13.43414448
C       -2.95504998      -4.64370503     -14.37345729
C       -3.92324265      -3.63236605     -14.47109800
C       -4.99505187      -3.75851141     -15.35710229
C       -5.09757527      -4.89282627     -16.15895188
C       -4.13909267      -5.90100727     -16.08255436
C       -3.06951219      -5.77472480     -15.19420991
Br      -6.54747648      -5.06560726     -17.35977212
H       -2.54609038      -0.86512327       0.48924837
H       -4.00065566      -2.19541524      -0.97671075
H       -0.76165634      -2.57511465      -3.80471040
H        0.62618949      -1.13450715      -2.40810198
H       -4.51962571      -2.79827325      -3.25490865
H       -3.50444992      -4.22981113      -3.02948199
H       -2.10728643      -1.54492873      -5.24846919
H       -1.70634909      -1.94704398      -7.56052393
H       -4.51244194      -5.22767407      -7.49613843
H       -4.73052348      -4.95337192      -5.09411801
H       -2.00205329      -1.87066660      -9.62393881
H       -1.42341638      -2.25203435     -11.93028891
H       -2.99188475      -6.25232117     -11.68316987
H       -3.50549525      -5.91635961      -9.33000596
H       -1.13659810      -5.39343998     -13.48499539
H       -1.15495187      -3.67550580     -13.79578320
H       -3.85305825      -2.74132964     -13.85061301
H       -5.73957881      -2.96864534     -15.41355309
H       -4.21323847      -6.78501720     -16.70997003
H       -2.32546004      -6.56722591     -15.14731672
C       -0.87856954       0.87856954       0.87856954
C       -0.96553660       2.24419866       0.63442476
C       -1.82143394       3.03705338       1.40574833
C       -2.59757986       2.47966089       2.44005776
C       -2.40503919       1.12526977       2.73784229
C       -1.58998526       0.31548525       1.93576829
C       -3.52341570       3.41186671       3.21027419
C       -4.74471872       2.88862133       3.94668237
C       -5.34117062       1.65384844       3.70374936
C       -6.39279118       1.18928939       4.50242361
C       -6.98501225       1.97483005       5.50724393
C       -6.46606385       3.27341834       5.65224821
C       -5.36115839       3.71471415       4.90013938
C       -8.08213812       1.43810164       6.36643096
C       -8.82023329       0.30018926       5.98051434
C       -9.79458551      -0.27311024       6.80433800
C      -10.09393132       0.28622877       8.04475968
C       -9.40520391       1.43873261       8.43772355
C       -8.41209533       1.99260457       7.61624989
C      -11.13550466      -0.34971522       8.93459084
C      -12.39503279       0.46455404       9.11262547
C      -13.15965890       0.86213042       8.00491738
C      -14.33392081       1.59718057       8.17956419
C      -14.75569689       1.92864216       9.46501437
C      -14.01437998       1.53227195      10.57600236
C      -12.83904089       0.79975260      10.39965341
Br     -16.34556533       2.92323421       9.70405633
H       -0.38027475       2.70187185      -0.16018132
H       -1.87938701       4.10219530       1.19119934
H       -2.89721949       0.65816429       3.58609761
H       -1.51648212      -0.74891777       2.14885528
H       -3.90193177       4.16502104       2.50585480
H       -2.88989964       3.93496251       3.93888091
H       -4.99059154       1.00019749       2.90989532
H       -6.72051346       0.17263683       4.32076670
H       -6.90275782       3.97423875       6.35925786
H       -4.98396713       4.72069326       5.07335302
H       -8.65431624      -0.17752838       5.01987084
H      -10.31205539      -1.16626248       6.45994673
H       -9.62644905       1.90777992       9.39314680
H       -7.88869412       2.87178561       7.99138108
H      -10.66757392      -0.55797727       9.90543682
H      -11.42397040      -1.33462414       8.53689461
H      -12.84074574       0.60812325       6.99613191
H      -14.90912557       1.90311124       7.30954043
H      -14.34289611       1.78489750      11.58043208
H      -12.27159215       0.49265134      11.27575918
C        0.87856954      -0.87856954       0.87856954
C        1.11476462      -0.52693772       2.20245768
C        1.87229173      -1.36911611       3.02282780
C        2.41418631      -2.57215378       2.53095842
C        2.25694882      -2.84450989       1.16669254
C        1.45544886      -2.03267314       0.35311680
C        3.20188158      -3.44187110       3.50180392
C        3.37470828      -4.93348335       3.27183079
C        2.57256504      -5.69794052       2.42826286
C        2.86492604      -7.04349971       2.17607843
C        3.89703727      -7.73147279       2.83857619
C        4.61364581      -6.98652121       3.79156338
C        4.36858310      -5.61507865       3.99235017
C        4.20722082      -9.15748429       2.52196561
C        3.27429478      -9.97518285       1.85145925
C        3.57074610     -11.28728985       1.46777732
C        4.81003363     -11.85068354       1.76420260
C        5.74197181     -11.07630274       2.46338552
C        5.44556739      -9.75300199       2.82238041
C        5.12712125     -13.26235250       1.33090653
C        5.25515207     -14.25539015       2.46167008
C        4.20232196     -14.45677251       3.36761223
C        4.32106076     -15.39169910       4.39790570
C        5.49025264     -16.13879526       4.52030553
C        6.54058273     -15.95928285       3.62278872
C        6.42146683     -15.02214985       2.59483022
Br       5.65313085     -17.40568001       5.91404501
H        0.70599575       0.39479399       2.61076352
H        2.03724673      -1.07749500       4.05803992
H        2.73429150      -3.70345256       0.70373733
H        1.29335732      -2.30956922      -0.68650690
H        2.73479832      -3.34652609       4.49148320
H        4.20217332      -2.99366697       3.56790276
H        1.71598097      -5.26855539       1.91614798
H        2.26226190      -7.53198822       1.41966687
H        5.38668990      -7.45126218       4.39830236
H        4.97237383      -5.08170353       4.72393605
H        2.28229876      -9.60955346       1.60480648
H        2.81667812     -11.85877103       0.93029049
H        6.71226232     -11.49219820       2.72291526
H        6.22396601      -9.19046343       3.33743138
H        6.04795491     -13.23288926       0.73418930
H        4.35060927     -13.63174608       0.64388552
H        3.28386553     -13.87983039       3.28130498
H        3.49831682     -15.52859989       5.09486052
H        7.45220333     -16.54370988       3.71231248
H        7.24732993     -14.89467094       1.89800180
