41
Properties=species:S:1:pos:R:3 pbc="F F F"
C        0.00000000       0.00000000       0.00000000
C        0.90651126       0.90651126      -0.90651126
N        1.18330198       2.11908047      -0.20626501
C        1.92412956       3.10430960      -0.78300871
O        2.39645290       3.07844981      -1.90727753
H        0.37110449       1.11642865      -1.83573341
H        1.83567588       0.36985444      -1.11335188
H        0.86117816       2.23450178       0.74339893
C        2.17062845       4.27815554       0.01381249
C        2.37707127       5.26125151       0.68115025
Br       2.71087185       6.85083454       1.76017895
C       -0.90651126      -0.90651126      -0.90651126
N       -1.88600542      -0.08339560      -1.53924644
C       -2.82897469      -0.62479433      -2.35767885
O       -2.95412838      -1.80976661      -2.61828524
H       -1.38907228      -1.65773927      -0.27645501
H       -0.27463063      -1.38630444      -1.65794712
H       -1.85756658       0.91761987      -1.41233431
C       -3.75650296       0.29110651      -2.96957505
C       -4.53330788       1.05817347      -3.48203812
Br      -5.78933574       2.29845586      -4.31064756
C       -0.90651126       0.90651126       0.90651126
N       -2.11039684       0.19816440       1.20008621
C       -3.09416092       0.77278542       1.94450154
O       -3.07408572       1.90135663       2.40673789
H       -1.12928044       1.82910876       0.36487736
H       -0.36360079       1.12621431       1.82906710
H       -2.22025334      -0.75527401       0.88730169
C       -4.25873965      -0.03205762       2.20828946
C       -5.23407434      -0.70611366       2.42921185
Br      -6.81110804      -1.79600526       2.78642466
C        0.90651126      -0.90651126       0.90651126
N        0.52449826      -2.26846987       0.71567932
C        1.13044869      -3.26740962       1.41358956
O        2.00730292      -3.12540510       2.24947222
H        0.76193329      -0.61235075       1.94898252
H        1.94802378      -0.76167751       0.60918091
H       -0.17534835      -2.50116384       0.02646552
C        0.69342843      -4.61015822       1.13138485
C        0.32742395      -5.73471017       0.89503841
Br      -0.26437433      -7.55301556       0.51288621
