69
Properties=species:S:1:pos:R:3 pbc="F F F"
C        0.00000000       0.00000000       0.00000000
C        0.90898785       0.90898785      -0.90898785
N        2.27793406       0.57686281      -0.66745739
C        3.13394895       0.19748413      -1.66925407
O        2.86614455       0.11525899      -2.85906097
C        4.55886181      -0.13640531      -1.17074512
O        4.83603782      -0.03315384       0.01582359
N        5.41355360      -0.52966297      -2.16677942
C        6.76956110      -0.87221940      -1.88944114
H        0.73639641       1.94398613      -0.60830479
H        0.61507025       0.75433525      -1.94859377
H        2.64005706       0.58311356       0.28126831
H        5.05546668      -0.58609390      -3.11502311
H        6.81135195      -1.75587273      -1.24744761
H        7.28476383      -0.03317041      -1.41626112
C        7.43507401      -1.17758632      -3.12937808
C        7.99244107      -1.43333113      -4.16782527
Br       8.89365647      -1.84684884      -5.84690653
C       -0.90898785      -0.90898785      -0.90898785
N       -2.23353631      -0.91654664      -0.37217132
C       -3.33199536      -0.55813411      -1.11055767
O       -3.33673373      -0.21886661      -2.28486416
C       -4.65706592      -0.61978059      -0.31635511
O       -4.65841833      -0.98069315       0.85205107
N       -5.75542951      -0.24871823      -1.04652231
C       -7.06183328      -0.24967679      -0.47527278
H       -0.50241773      -1.92101914      -0.86525045
H       -0.86964788      -0.52031098      -1.92804040
H       -2.38298789      -1.16099296       0.60207855
H       -5.61837432       0.04311493      -2.00913649
H       -7.11964294       0.48218864       0.33452745
H       -7.31506059      -1.24628414      -0.10650982
C       -8.01391050       0.11812715      -1.49108242
C       -8.81127517       0.42616295      -2.34182300
Br     -10.10054640       0.92423079      -3.71739856
C       -0.90898785       0.90898785       0.90898785
N       -0.18810294       1.23487871       2.09927262
C        0.02840474       2.52788177       2.50121012
O       -0.36566082       3.53798079       1.93682290
C        0.85166852       2.63978739       3.80508276
O        1.22785472       1.63061657       4.38429855
N        1.08240386       3.93053186       4.20254206
C        1.82169088       4.22209829       5.38637544
H       -1.78965767       0.32232814       1.17670151
H       -1.19288320       1.79170866       0.33340740
H        0.21661407       0.49436187       2.66415450
H        0.72441389       4.68434965       3.62446013
H        2.85173278       3.87112385       5.28353578
H        1.34693181       3.75989934       6.25488701
C        1.84341615       5.64863097       5.58165095
C        1.86161107       6.84335209       5.74519419
Br       1.89103070       8.77511509       6.00962978
C        0.90898785      -0.90898785       0.90898785
N        0.07779821      -1.84277335       1.60168270
C        0.27142278      -3.19841995       1.53084441
O        1.15528981      -3.77300220       0.91217249
C       -0.76215300      -4.01323943       2.34211520
O       -1.63378320      -3.44036477       2.98047884
N       -0.58079445      -5.36896938       2.26249512
C       -1.43963159      -6.27480452       2.95160992
H        1.39412616      -0.25694454       1.63761662
H        1.64977611      -1.39585231       0.27237085
H       -0.71297685      -1.50992756       2.14495159
H        0.17718425      -5.72100910       1.68620254
H       -2.45798613      -6.19914229       2.56177068
H       -1.42651045      -6.06983726       4.02452774
C       -0.96765168      -7.61812708       2.73639037
C       -0.57236851      -8.74315973       2.55614399
Br       0.06677095     -10.56224237       2.26470085
