82
Properties=species:S:1:pos:R:3 pbc="F F F"
C        1.81889188       1.81889188      -1.81889188
N        3.18783809       1.48676684      -1.57736142
C        4.04385297       1.10738815      -2.57915809
O        3.77604858       1.02516301      -3.76896499
C        5.46876583       0.77349872      -2.08064915
O        5.74594185       0.87675019      -0.89408044
N        6.32345763       0.38024105      -3.07668345
C        7.67946512       0.03768463      -2.79934517
Br       8.57288916      -0.37225806      -4.46391011
H        1.64630043       2.85389016      -1.51820881
H        1.52497428       1.66423927      -2.85849779
H        3.54996108       1.49301758      -0.62863571
H        5.96537070       0.32381012      -4.02492714
H        7.72125598      -0.84596870      -2.15735164
H        8.19466785       0.87673362      -2.32616515
C       -1.81889188      -1.81889188      -1.81889188
N       -3.01955434      -1.10684156      -2.12557044
C       -3.43667289      -0.88148804      -3.41223829
O       -2.87860333      -1.25971616      -4.43185708
C       -4.74977438      -0.07035553      -3.50278379
O       -5.32250164       0.28985458      -2.48412541
N       -5.16253461       0.16924686      -4.78709437
C       -6.35658369       0.89941942      -5.05933065
Br      -6.63833711       0.94508002      -6.97128411
H       -2.07184989      -2.70804127      -1.23850824
H       -1.24944533      -2.08812132      -2.71014469
H       -3.58094732      -0.71527295      -1.37539410
H       -4.58854439      -0.17533315      -5.55023042
H       -6.26050784       1.92688702      -4.69901809
H       -7.21559383       0.41131703      -4.59328982
C       -1.81889188       1.81889188       1.81889188
N       -1.04583806       2.27504491       2.93108338
C       -0.89525632       3.60470612       3.23043678
O       -1.39618538       4.54412430       2.62986690
C        0.00233169       3.86267266       4.46257273
O        0.48637886       2.92404645       5.07910488
N        0.16693834       5.19070868       4.75661179
C        0.96030961       5.61345726       5.86334727
Br       0.87119969       7.54000010       5.99574079
H       -2.63625669       1.19576431       2.18637840
H       -2.20189759       2.63801310       1.20780065
H       -0.55334203       1.60468222       3.51359013
H       -0.28086235       5.87646195       4.15678366
H        2.00355069       5.32487589       5.71131372
H        0.57782206       5.18350468       6.79188400
C        1.81889188      -1.81889188       1.81889188
N        1.00108464      -2.43464443       2.81623727
C        0.94602607      -3.79361342       2.99075972
O        1.57660540      -4.63122282       2.36234836
C       -0.02297325      -4.23360088       4.11228606
O       -0.63803495      -3.39682023       4.75798720
N       -0.09166216      -5.59163237       4.28041192
C       -0.93217776      -6.17540714       5.27326554
Br      -0.68220380      -8.09222677       5.25451823
H        2.54428581      -1.16616747       2.30794612
H        2.32251967      -2.54583240       1.17935927
H        0.40443418      -1.86179109       3.40538910
H        0.46342265      -6.18188114       3.66880417
H       -1.98104279      -5.96098845       5.05269325
H       -0.66720976      -5.80032779       6.26444858
C       -0.00445707       0.01189536      -1.78238275
H       -0.66409135       0.67374010      -2.43557963
H        0.65740317      -0.63156657      -2.45157240
C       -0.90989263      -0.90692880      -0.91072765
C        0.90977584       0.90977584      -0.90977584
C       -0.00465871       1.77757030       0.00794375
H       -0.66225468       2.44313916      -0.64384735
H        0.64322798       2.43503045       0.67728295
C       -1.78241447       0.00034974      -0.00472694
H       -2.45427497      -0.65498947       0.64260836
H       -2.43311707       0.67328779      -0.65473579
C       -0.91132561       0.90220522       0.91563759
C       -0.01476271      -0.02253852       1.78660255
H       -0.67934791      -0.69751639       2.42135241
H        0.63392994       0.61504881       2.47327442
C        0.01484550      -1.77751727      -0.01636693
H        0.67870853      -2.42144646      -0.68295456
H       -0.62264859      -2.45592969       0.64226336
C        1.78714474       0.01002794       0.00389507
H        2.44202412       0.67113390       0.66197326
H        2.45385902      -0.65136977      -0.64189061
C        0.91606151      -0.90478549       0.90901405
