98
Properties=species:S:1:pos:R:3 pbc="F F F"
C        1.81665162       1.81665162      -1.81665162
N        1.11176323       3.02714435      -2.09559456
C        1.66776980       3.99103943      -2.88732371
O        2.77191057       3.91446861      -3.40563608
C        0.84962131       5.15628661      -3.10303350
C        0.15551003       6.11692364      -3.29279568
C       -0.74053766       7.32901437      -3.55823339
C       -1.44288406       8.27135422      -3.80177405
C       -2.27949955       9.39554460      -4.13351745
O       -3.14751730       9.76491989      -3.35676941
N       -2.02186774       9.97037235      -5.34528273
C       -2.79091538      11.08172126      -5.80657025
Br      -2.12803521      11.60711064      -7.54535937
H        2.02925225       1.27845083      -2.74373233
H        2.74202222       2.03279356      -1.27720513
H        0.19301579       3.16048093      -1.69732928
H       -1.28976445       9.60460075      -5.93754966
H       -2.68371423      11.92753425      -5.12318404
H       -3.84182916      10.79948809      -5.90709784
C       -1.81665162      -1.81665162      -1.81665162
N       -0.98375034      -2.76353338      -2.48721843
C       -1.51844049      -3.66648620      -3.36120626
O       -2.70617438      -3.74863083      -3.63721005
C       -0.57115597      -4.55599506      -3.98179040
C        0.22585738      -5.28267408      -4.50841265
C        1.24496504      -6.19020753      -5.20146761
C        2.03430493      -6.88765818      -5.77689097
C        2.96541206      -7.71243498      -6.50253959
O        4.03957406      -8.01129537      -6.00245069
N        2.54954346      -8.09856085      -7.74476996
C        3.38428635      -8.90262945      -8.57903302
Br       2.45219741      -9.23675551     -10.23987670
H       -2.32892741      -1.18010331      -2.54240468
H       -2.53983719      -2.33215534      -1.18002838
H        0.00982954      -2.75572478      -2.30493077
H        1.64788721      -7.80614343      -8.09412975
H        3.59178596      -9.86127203      -8.09751799
H        4.31498395      -8.37589955      -8.80384118
C       -1.81665162       1.81665162       1.81665162
N       -2.58533626       0.97341681       2.67574908
C       -3.47953670       1.50759942       3.55899683
O       -3.69451997       2.70303653       3.69445876
C       -4.20133014       0.55058919       4.35702209
C       -4.81183653      -0.25316092       5.00655374
C       -5.61083731      -1.27856231       5.81443510
C       -6.26788137      -2.07024536       6.43260820
C       -7.08978064      -3.00151935       7.16130122
O       -6.66724122      -4.11751483       7.42444561
N       -8.32767350      -2.53625738       7.50237122
C       -9.25138096      -3.36406249       8.21005765
Br     -10.87535009      -2.35717645       8.50626116
H       -2.47531987       2.40403612       1.17207941
H       -1.17233160       2.47257982       2.40710950
H       -2.45746119      -0.02712564       2.62049045
H       -8.60975906      -1.60128610       7.24391301
H       -8.83814364      -3.65111646       9.17997689
H       -9.49587963      -4.25003709       7.61891424
C        1.81665162      -1.81665162       1.81665162
N        2.66997268      -0.97311465       2.59141482
C        3.58145142      -1.50877400       3.45590752
O        3.74367470      -2.70561099       3.64272957
C        4.39045755      -0.55233818       4.16614570
C        5.07311911       0.24967893       4.74178917
C        5.96303741       1.27078902       5.45446172
C        6.68988157       2.05678756       5.99715020
C        7.59384057       2.97889350       6.63461544
O        7.24145746       4.12708682       6.85980135
N        8.82325005       2.46716307       6.93770037
C        9.82252720       3.27971526       7.55456419
Br      11.40781699       2.20539796       7.82201576
H        2.41085928      -2.46883589       1.17174024
H        1.17228797      -2.40798711       2.47174584
H        2.58915328       0.02876487       2.49043759
H        9.04476326       1.50708480       6.71470751
H        9.47519805       3.63567364       8.52747965
H       10.07947641       4.12132669       6.90660706
C       -0.00445707       0.01189536      -1.78238275
H       -0.66409135       0.67374010      -2.43557963
H        0.65740317      -0.63156657      -2.45157240
C       -0.90989263      -0.90692880      -0.91072765
C        0.90977584       0.90977584      -0.90977584
C       -0.00465871       1.77757030       0.00794375
H       -0.66225468       2.44313916      -0.64384735
H        0.64322798       2.43503045       0.67728295
C       -1.78241447       0.00034974      -0.00472694
H       -2.45427497      -0.65498947       0.64260836
H       -2.43311707       0.67328779      -0.65473579
C       -0.91132561       0.90220522       0.91563759
C       -0.01476271      -0.02253852       1.78660255
H       -0.67934791      -0.69751639       2.42135241
H        0.63392994       0.61504881       2.47327442
C        0.01484550      -1.77751727      -0.01636693
H        0.67870853      -2.42144646      -0.68295456
H       -0.62264859      -2.45592969       0.64226336
C        1.78714474       0.01002794       0.00389507
H        2.44202412       0.67113390       0.66197326
H        2.45385902      -0.65136977      -0.64189061
C        0.91606151      -0.90478549       0.90901405
