106
Properties=species:S:1:pos:R:3 pbc="F F F"
C        1.78807723       1.78807723      -1.78807723
C        2.65169445       1.17531874      -2.91737706
C        2.10802130       1.16573421      -4.33203978
C        1.60094358       2.54196411      -4.71721665
C        1.86102780       3.53486548      -3.60390756
C        3.27385728       3.62080730      -2.98818484
C        3.74680020       2.20574363      -2.58031501
C        3.07189499       2.39926234      -1.21385241
C        2.61537920       3.77310455      -1.61765113
Br       2.71864449       5.28974393      -0.55943925
C        1.32143002       3.19800505      -2.19110996
H        2.99023464       0.15784329      -2.66652947
H        2.89095989       0.84910549      -5.03162753
H        1.29896246       0.43167727      -4.42433280
H        2.08660410       2.87157513      -5.64289916
H        0.52706215       2.49487785      -4.93320022
H        1.51365458       4.52817088      -3.92722269
H        3.99644061       4.35618127      -3.33595519
H        4.80293922       1.94872703      -2.61864639
H        3.52881179       2.11686959      -0.27213276
H        0.35984800       3.58553467      -1.85870189
C       -1.78807723      -1.78807723      -1.78807723
C       -1.62664003      -3.32773955      -1.79001067
C       -2.53606869      -4.16067854      -0.90904805
C       -3.98515784      -3.76273844      -1.11222807
C       -4.10000946      -2.70757066      -2.19222072
C       -3.39714536      -2.93882862      -3.54687544
C       -1.91624099      -3.31314717      -3.30347068
C       -1.56230178      -1.81819148      -3.30451649
C       -3.00334402      -1.46233624      -3.54045462
Br      -3.61004499      -0.20258275      -4.75519993
C       -3.26039186      -1.41488072      -2.03527246
H       -0.58465220      -3.62956206      -1.60039314
H       -2.40742382      -5.22520269      -1.13906641
H       -2.26102565      -4.03918774       0.14524086
H       -4.57948209      -4.64491933      -1.37667696
H       -4.40102564      -3.38232713      -0.17178745
H       -5.16389081      -2.46591487      -2.33924247
H       -3.93237068      -3.36160446      -4.39460193
H       -1.39998182      -3.98096048      -3.98937033
H       -0.69902504      -1.40498808      -3.81380102
H       -3.69484919      -0.52359287      -1.58564251
C       -1.78807723       1.78807723       1.78807723
C       -1.80582111       3.32608795       1.61248120
C       -2.89121286       3.95361561       0.76096682
C       -4.25602722       3.43432768       1.16976945
C       -4.13643314       2.50447235       2.35889535
C       -3.32887407       2.96160171       3.59237364
C       -1.93405666       3.45620030       3.14260188
C       -1.41198558       2.01589098       3.25713319
C       -2.77031913       1.54278693       3.69302883
Br      -3.09916863       0.37557678       5.09308225
C       -3.17414641       1.29591051       2.24048812
H       -0.83073035       3.70996336       1.27391369
H       -2.86305778       5.04510934       0.86352580
H       -2.71428821       3.74047268      -0.29978837
H       -4.91757020       4.27502692       1.40848127
H       -4.72010687       2.90719593       0.32783742
H       -5.14448381       2.17287088       2.65169346
H       -3.81888843       3.42174523       4.44794341
H       -1.43018565       4.24830065       3.69182634
H       -0.45892140       1.75544894       3.70344379
H       -3.54706193       0.31869706       1.93832557
C        1.78807723      -1.78807723       1.78807723
C        2.11620951      -1.38253915       3.24564159
C        1.27885471      -1.95543453       4.37150604
C        1.16277530      -3.46131339       4.23603565
C        1.98319159      -3.95406049       3.06254876
C        3.45265749      -3.50067236       2.92951956
C        3.53038393      -1.96001017       3.04246475
C        3.29744767      -1.86034452       1.52721756
C        3.22256326      -3.35799718       1.42557445
Br       4.05367046      -4.38596788       0.12818932
C        1.71562945      -3.32098716       1.67392844
H        2.16063785      -0.28869116       3.36527839
H        1.72969529      -1.70314379       5.33885384
H        0.27996068      -1.50361098       4.37140086
H        1.49410776      -3.94465188       5.16231875
H        0.11147094      -3.74200866       4.10166062
H        1.90573450      -5.05102483       3.01228882
H        4.26825450      -4.11504388       3.30527869
H        4.40776495      -1.48597502       3.47657267
H        3.84959047      -1.19156717       0.87665649
H        1.03651107      -3.79819271       0.96938078
C       -0.00445707       0.01189536      -1.78238275
H       -0.66409135       0.67374010      -2.43557963
H        0.65740317      -0.63156657      -2.45157240
C       -0.90989263      -0.90692880      -0.91072765
C        0.90977584       0.90977584      -0.90977584
C       -0.00465871       1.77757030       0.00794375
H       -0.66225468       2.44313916      -0.64384735
H        0.64322798       2.43503045       0.67728295
C       -1.78241447       0.00034974      -0.00472694
H       -2.45427497      -0.65498947       0.64260836
H       -2.43311707       0.67328779      -0.65473579
C       -0.91132561       0.90220522       0.91563759
C       -0.01476271      -0.02253852       1.78660255
H       -0.67934791      -0.69751639       2.42135241
H        0.63392994       0.61504881       2.47327442
C        0.01484550      -1.77751727      -0.01636693
H        0.67870853      -2.42144646      -0.68295456
H       -0.62264859      -2.45592969       0.64226336
C        1.78714474       0.01002794       0.00389507
H        2.44202412       0.67113390       0.66197326
H        2.45385902      -0.65136977      -0.64189061
C        0.91606151      -0.90478549       0.90901405
