114
Properties=species:S:1:pos:R:3 pbc="F F F"
C        1.80914046       1.80914046      -1.80914046
C        1.49373508       3.18333172      -1.95236317
C        0.30535487       3.82192956      -1.25952208
C        2.31382874       4.01005259      -2.77419984
C        1.95219453       5.47503970      -2.91148259
C        3.42900149       3.44184641      -3.42998473
Br       4.55223220       4.53591202      -4.54083779
C        3.74552313       2.06745297      -3.28606338
C        4.95259450       1.50055463      -4.00743090
C        2.92697975       1.23959535      -2.46967423
C        3.28298167      -0.22546968      -2.33323008
H       -0.28395230       3.14653389      -0.64051226
H       -0.38436886       4.23241329      -2.00387570
H        0.64607689       4.62262052      -0.59530467
H        2.61413797       6.05141282      -3.55726741
H        1.98266113       5.96166853      -1.93108606
H        0.94877715       5.57484636      -3.33841575
H        5.11646098       0.43543229      -3.83430678
H        5.86468603       2.00626734      -3.67249245
H        4.83581929       1.61846660      -5.09026369
H        2.61436013      -0.80770859      -1.69961751
H        4.28138614      -0.32622456      -1.89381081
H        3.26002792      -0.70621097      -3.31731952
C       -1.80914046      -1.80914046      -1.80914046
C       -2.17042599      -3.10255985      -1.35644413
C       -1.71387416      -3.65363463      -0.01929772
C       -2.99319088      -3.92893690      -2.17595339
C       -3.36218543      -5.30809647      -1.66843493
C       -3.43490730      -3.44002306      -3.42590227
Br      -4.54781399      -4.53332799      -4.54784003
C       -3.07465311      -2.14576069      -3.87862568
C       -3.57251102      -1.66165175      -5.22641726
C       -2.25095524      -1.32061027      -3.06468382
C       -1.87704350       0.05649524      -3.57019380
H       -1.09201470      -2.97929448       0.56821534
H       -1.11946825      -4.56000349      -0.17244838
H       -2.58242061      -3.88658000       0.60499852
H       -3.98770774      -5.89197495      -2.34313551
H       -3.92043916      -5.22479935      -0.73017721
H       -2.45667649      -5.90144825      -1.50391452
H       -3.24519335      -0.65364369      -5.48736300
H       -4.66755761      -1.63768881      -5.23819941
H       -3.20426614      -2.31705222      -6.02323121
H       -1.23950252       0.63727904      -2.90404557
H       -2.78177584       0.65513251      -3.72232907
H       -1.32667926      -0.03113499      -4.51332223
C       -1.80914046       1.80914046       1.80914046
C       -1.90456105       1.52966158       3.19520734
C       -1.16003134       0.38013974       3.84663542
C       -2.72621026       2.34989773       4.02197317
C       -2.81181168       2.02701677       5.49988839
C       -3.42962335       3.42934489       3.44186438
Br      -4.54130518       4.55208068       4.53559616
C       -3.33354261       3.70995289       2.05554398
C       -4.10510272       4.87942085       1.47605645
C       -2.51741318       2.89108001       1.22775614
C       -2.43248919       3.20830747      -0.25005460
H       -0.54346228      -0.21082014       3.17045170
H       -1.87233650      -0.31806353       4.29764716
H       -0.48371727       0.76235757       4.61792725
H       -3.46001171       2.68694226       6.07586423
H       -1.81943014       2.09903551       5.95695007
H       -3.20661471       1.01531159       5.64011295
H       -3.96675194       5.01725009       0.40219801
H       -3.78258396       5.81478119       1.94608068
H       -5.18037399       4.73574905       1.62842653
H       -1.79642330       2.54119818      -0.83135244
H       -2.02509201       4.21532693      -0.39144654
H       -3.42861236       3.14386186      -0.70133775
C        1.80914046      -1.80914046       1.80914046
C        2.59350659      -1.20989236       2.82603102
C        2.59399179       0.28556806       3.07838277
C        3.41786560      -2.02884943       3.65136613
C        4.24786949      -1.36164098       4.72920636
C        3.43519741      -3.42580178       3.43983344
Br       4.53558649      -4.55207554       4.54131999
C        2.64982934      -4.02578127       2.42342887
C        2.69860105      -5.52913275       2.23284622
C        1.82927266      -3.21075132       1.59622535
C        1.00154401      -3.87345989       0.51573817
H        1.94317084       0.86304908       2.42297209
H        3.60231770       0.68759101       2.93719343
H        2.25707245       0.49230050       4.09923014
H        4.86022758      -2.04090154       5.32168908
H        3.59398772      -0.84325741       5.43817060
H        4.94053423      -0.64352587       4.27797916
H        2.05957672      -5.89805121       1.42857211
H        2.36314828      -6.03642855       3.14386899
H        3.71690768      -5.84565624       1.98198565
H        0.39914752      -3.19513789      -0.08801636
H        0.29909517      -4.58230999       0.96756723
H        1.65895877      -4.39822324      -0.18604553
C       -0.00445707       0.01189536      -1.78238275
H       -0.66409135       0.67374010      -2.43557963
H        0.65740317      -0.63156657      -2.45157240
C       -0.90989263      -0.90692880      -0.91072765
C        0.90977584       0.90977584      -0.90977584
C       -0.00465871       1.77757030       0.00794375
H       -0.66225468       2.44313916      -0.64384735
H        0.64322798       2.43503045       0.67728295
C       -1.78241447       0.00034974      -0.00472694
H       -2.45427497      -0.65498947       0.64260836
H       -2.43311707       0.67328779      -0.65473579
C       -0.91132561       0.90220522       0.91563759
C       -0.01476271      -0.02253852       1.78660255
H       -0.67934791      -0.69751639       2.42135241
H        0.63392994       0.61504881       2.47327442
C        0.01484550      -1.77751727      -0.01636693
H        0.67870853      -2.42144646      -0.68295456
H       -0.62264859      -2.45592969       0.64226336
C        1.78714474       0.01002794       0.00389507
H        2.44202412       0.67113390       0.66197326
H        2.45385902      -0.65136977      -0.64189061
C        0.91606151      -0.90478549       0.90901405
