186
Properties=species:S:1:pos:R:3 pbc="F F F"
C        1.83309733       1.83309733      -1.83309733
C        3.10825612       1.09406753      -2.31493821
H        3.61441383       0.78560301      -1.39084241
C        4.11095869       2.05483673      -3.11013204
H        3.66583261       2.11775121      -4.11392622
N        5.45328563       1.44807094      -3.34975142
C        6.29243976       1.19716513      -2.16609039
C        7.56925218       0.40153473      -2.52361205
N        8.38716615       1.07003449      -3.55258754
C        7.54187449       1.32886353      -4.73281670
C        6.24625942       2.10850126      -4.40258844
C        4.11509680       3.53402234      -2.65378393
Br       4.62103314       3.85267367      -0.80594894
N        2.72083091      -0.16543591      -3.01551191
C        3.79278934      -1.15576655      -3.19132972
C        3.23421367      -2.51189933      -3.68643609
N        2.45738713      -2.39859322      -4.93614525
C        1.40101282      -1.38986609      -4.74051711
C        1.94866145      -0.02338108      -4.25859999
H        2.05767148       2.66994265      -1.17415306
H        1.20676360       2.19713349      -2.64940300
H        5.74983926       0.62488617      -1.40885475
H        6.61503629       2.13809793      -1.71065441
H        8.17973311       0.27763900      -1.62274822
H        7.30295928      -0.60551446      -2.86564270
H        8.69241130       1.96857374      -3.17679083
H        8.12908939       1.89801520      -5.46093248
H        7.29044316       0.37259705      -5.20940045
H        6.52585587       3.12315261      -4.09819142
H        5.65566625       2.18718090      -5.32166519
H        4.78993456       4.14721650      -3.26002385
H        3.12002785       3.97808764      -2.77137219
H        4.31168032      -1.32719304      -2.24140083
H        4.53007777      -0.81286397      -3.92622812
H        4.06656250      -3.20303397      -3.85814001
H        2.60559150      -2.96324864      -2.90863018
H        3.08619880      -2.05788788      -5.66310306
H        0.86893343      -1.25044133      -5.68711739
H        0.66551455      -1.76966080      -4.02114909
H        2.56610333       0.41355743      -5.05319889
H        1.08537008       0.63290344      -4.11819556
C       -1.83309733      -1.83309733      -1.83309733
C       -2.97930477      -2.50462510      -1.03333199
H       -2.46928809      -3.07531746      -0.24625370
C       -3.81335864      -3.54790043      -1.91466838
H       -4.48592753      -2.90757011      -2.50401241
N       -4.73977692      -4.39931968      -1.11201140
C       -4.12448199      -5.35514696      -0.17606632
C       -5.17908634      -6.03953575       0.72422312
N       -6.22197472      -6.73757484      -0.05023862
C       -6.82957109      -5.78061194      -0.99337168
C       -5.79543768      -5.06574528      -1.89616616
C       -3.00695338      -4.28385815      -3.01209155
Br      -1.51967612      -5.36803181      -2.39194783
N       -3.77993959      -1.45756758      -0.33339973
C       -4.64698131      -1.93481700       0.75344580
C       -5.22591189      -0.75665656       1.57381802
N       -5.96239302       0.21970337       0.74775048
C       -5.07939674       0.67036986      -0.34263696
C       -4.50457459      -0.49886273      -1.18044304
H       -1.11958178      -2.55407900      -2.22810642
H       -2.18480262      -1.21071181      -2.65778567
H       -3.40363059      -4.86011763       0.48016804
H       -3.59896385      -6.14728402      -0.71754075
H       -4.68060154      -6.76995574       1.37043695
H       -5.64749946      -5.30081698       1.38522892
H       -5.77035320      -7.47512576      -0.59229691
H       -7.54424827      -6.32123127      -1.62255755
H       -7.40685806      -5.03815464      -0.42742797
H       -5.36305614      -5.80866482      -2.57547893
H       -6.33046867      -4.32903372      -2.50500995
H       -3.63933375      -4.95255271      -3.60528845
H       -2.57832431      -3.56821578      -3.72294760
H       -4.08160023      -2.57984765       1.43555978
H       -5.49192262      -2.51135847       0.35983917
H       -5.90806770      -1.14929376       2.33569293
H       -4.41833322      -0.24209488       2.10945506
H       -6.75664892      -0.26388669       0.32912162
H       -5.64539156       1.33903202      -0.99924995
H       -4.25894778       1.26477576       0.07716917
H       -5.32617931      -0.99313897      -1.71354138
H       -3.84664898      -0.05636616      -1.93345395
C       -1.83309733       1.83309733       1.83309733
C       -2.38994139       1.06667181       3.06064866
H       -2.94042364       0.21960193       2.63083367
C       -3.43533498       1.93605288       3.90453959
H       -2.79446951       2.59969686       4.50334368
N       -4.18368087       1.14346931       4.92395781
C       -5.11503542       0.12003150       4.42062836
C       -5.68385426      -0.75277745       5.56332216
N       -6.36701834       0.04203361       6.60073623
C       -5.43539557       1.07223910       7.09592005
C       -4.83519749       1.95048619       5.97166544
C       -4.27984864       2.94008486       3.08296958
Br      -5.40714811       2.17203659       1.70047106
N       -1.25945838       0.47598138       3.83546715
C       -1.62126417      -0.58228335       4.78937170
C       -0.36542336      -1.29886400       5.34219107
N        0.59979278      -0.37653279       5.97126474
C        0.93399437       0.68280977       5.00284844
C       -0.31375897       1.41751418       4.45260720
H       -2.61547343       2.14348501       1.14280876
H       -1.24226945       2.71110403       2.09992661
H       -4.62310412      -0.54915270       3.70962876
H       -5.96648001       0.58361222       3.91369640
H       -6.40129189      -1.46777505       5.14660350
H       -4.88172383      -1.34190960       6.02327329
H       -7.15993005       0.51368964       6.16415617
H       -5.97149447       1.71152699       7.80501562
H       -4.62908194       0.58456458       7.65879415
H       -5.64057709       2.55977979       5.54684302
H       -4.10719598       2.63077874       6.42653762
H       -4.94607889       3.53136690       3.71972911
H       -3.63327041       3.66327012       2.57294716
H       -2.25522725      -1.33224329       4.30290414
H       -2.17174189      -0.17201915       5.64371919
H       -0.67274621      -2.03953490       6.08845723
H        0.13387805      -1.85194004       4.53679114
H        0.13759942       0.06088059       6.76813282
H        1.59306757       1.40872390       5.48995316
H        1.50522260       0.24890542       4.17332002
H       -0.79190104       1.97004194       5.27091668
H        0.04515044       2.15360998       3.72800954
C        1.83309733      -1.83309733       1.83309733
C        1.12666407      -3.15275633       2.23784146
H        0.21090557      -2.82984743       2.75010626
C        1.98129167      -4.01055633       3.28407945
H        2.73443702      -4.50772075       2.65535228
N        1.21869090      -5.14014022       3.89227687
C        0.09420968      -4.78670521       4.77478039
C       -0.72550423      -6.03063927       5.18926394
N        0.09637173      -7.05793962       5.85547683
C        1.22696452      -7.40276383       4.97382637
C        2.05580234      -6.17431582       4.52723097
C        2.85413061      -3.18692108       4.26185139
Br       1.90062879      -1.95613728       5.42288969
N        0.68188578      -3.87757894       1.01144218
C       -0.32198176      -4.93105702       1.21927725
C       -0.90020433      -5.43447011      -0.12551535
N        0.13603447      -5.91761434      -1.05870963
C        1.13783772      -4.85178767      -1.23796156
C        1.73486864      -4.34899170       0.10002002
H        2.03101738      -1.18542243       2.68532739
H        2.76979609      -1.98855207       1.29495193
H       -0.59109450      -4.08980475       4.28486993
H        0.45378018      -4.31563661       5.69437183
H       -1.52102296      -5.72423280       5.87691050
H       -1.21715919      -6.46795311       4.31229361
H        0.47371623      -6.65165926       6.71240037
H        1.87919198      -8.10339227       5.50545282
H        0.84454031      -7.93473145       4.09316891
H        2.57001522      -5.77072285       5.40646183
H        2.82056323      -6.52034818       3.82360093
H        3.44353543      -3.82928208       4.92435740
H        3.58018447      -2.57681774       3.71248548
H       -1.15166611      -4.55130647       1.82624775
H        0.11284372      -5.79383692       1.73676129
H       -1.60057582      -6.25420896       0.06803540
H       -1.47690991      -4.63471385      -0.60683089
H        0.59975985      -6.71437071      -0.62271657
H        1.94548357      -5.23195145      -1.87182552
H        0.68295199      -4.01377654      -1.77972568
H        2.31357251      -5.15996905       0.55931809
H        2.43612535      -3.54709555      -0.14675182
C       -0.00445707       0.01189536      -1.78238275
H       -0.66409135       0.67374010      -2.43557963
H        0.65740317      -0.63156657      -2.45157240
C       -0.90989263      -0.90692880      -0.91072765
C        0.90977584       0.90977584      -0.90977584
C       -0.00465871       1.77757030       0.00794375
H       -0.66225468       2.44313916      -0.64384735
H        0.64322798       2.43503045       0.67728295
C       -1.78241447       0.00034974      -0.00472694
H       -2.45427497      -0.65498947       0.64260836
H       -2.43311707       0.67328779      -0.65473579
C       -0.91132561       0.90220522       0.91563759
C       -0.01476271      -0.02253852       1.78660255
H       -0.67934791      -0.69751639       2.42135241
H        0.63392994       0.61504881       2.47327442
C        0.01484550      -1.77751727      -0.01636693
H        0.67870853      -2.42144646      -0.68295456
H       -0.62264859      -2.45592969       0.64226336
C        1.78714474       0.01002794       0.00389507
H        2.44202412       0.67113390       0.66197326
H        2.45385902      -0.65136977      -0.64189061
C        0.91606151      -0.90478549       0.90901405
