109
Properties=species:S:1:pos:R:3 pbc="F F F"
C        0.00000000       0.00000000       0.00000000
C        0.88182927       0.88182927      -0.88182927
C        1.42261331       0.36406329      -2.05522748
C        2.22925120       1.17209655      -2.86061280
C        2.51106250       2.50241867      -2.49891580
C        1.94844903       3.00324615      -1.31374305
C        1.13862847       2.19770063      -0.50772702
C        3.39307253       3.35794975      -3.39667083
O        3.49362314       4.69868039      -2.91148481
C        4.79499648       2.80287256      -3.58934478
C        5.65295760       2.61672957      -2.49206306
C        6.94039724       2.10630804      -2.67261790
C        7.38062401       1.78341725      -3.95424021
C        6.54701815       1.96786813      -5.05537252
C        5.25930948       2.47759907      -4.87414827
H        1.22554250      -0.66233299      -2.35209111
H        2.64611014       0.75178941      -3.77401371
H        2.13634229       4.03112045      -1.00857129
H        0.71557137       2.60906660       0.40483424
H        2.88785324       3.43185485      -4.36774554
H        4.34249498       5.05301482      -3.22497792
H        5.31435332       2.86385704      -1.48650995
H        7.58600857       1.96305657      -1.81041514
H        6.88922459       1.71711380      -6.05612410
H        4.61968230       2.61486555      -5.74392789
C        8.70706704       1.25555422      -4.14267981
C        9.81796309       0.81346893      -4.30049798
Br      11.61418804       0.09865441      -4.55567661
C       -0.88182927      -0.88182927      -0.88182927
C       -1.40219504      -0.37188941      -2.06781963
C       -2.20886486      -1.17990727      -2.87318842
C       -2.51110321      -2.50227261      -2.49902114
C       -1.96884685      -2.99539522      -1.30119617
C       -1.15903255      -2.18989521      -0.49512836
C       -3.39260345      -3.35799849      -3.39709117
O       -3.51521340      -4.69144514      -2.89712979
C       -4.78528302      -2.78854012      -3.61339069
C       -5.65401012      -2.57883596      -2.52890414
C       -6.93290882      -2.05525159      -2.73116278
C       -7.35379855      -1.74267604      -4.02180687
C       -6.50935651      -1.95044320      -5.11045909
C       -5.23018847      -2.47333219      -4.90753616
H       -1.18914770       0.64839597      -2.37454889
H       -2.60962094      -0.76574380      -3.79654852
H       -2.17283545      -4.01716760      -0.98603098
H       -0.75196071      -2.59520326       0.42736025
H       -2.87671797      -3.44972371      -4.36101193
H       -4.36450274      -5.03935845      -3.21662652
H       -5.33050125      -2.81778963      -1.51642943
H       -7.58702034      -1.89382821      -1.87863174
H       -6.83648057      -1.70776180      -6.11822013
H       -4.58189685      -2.62879164      -5.76778725
C       -8.67138897      -1.20128097      -4.23263114
C       -9.77487094      -0.74786260      -4.40919647
Br     -11.55910796      -0.01472343      -4.69468767
C       -0.88182927       0.88182927       0.88182927
C       -1.49249333       2.00924984       0.34016091
C       -2.29868365       2.81492964       1.14834726
C       -2.49693440       2.50821139       2.50725116
C       -1.87513655       1.36197908       3.02832260
C       -1.07043306       0.55259627       2.22102679
C       -3.38062500       3.40486071       3.36220742
O       -3.53126414       2.88671886       4.68580533
C       -2.89207844       4.84137191       3.45376347
C       -1.62913895       5.13953920       3.99307208
C       -1.18326038       6.46053277       4.07553003
C       -2.00102664       7.49375253       3.62350229
C       -3.25941555       7.21845446       3.09238879
C       -3.70449909       5.89713757       3.00942016
H       -1.34873563       2.27103605      -0.70447106
H       -2.76760885       3.69407349       0.71023092
H       -2.01515803       1.08830461       4.07257138
H       -0.60007426      -0.32884278       2.64857225
H       -4.38443252       3.38306946       2.91995164
H       -3.70730553       3.64290156       5.27028063
H       -0.98280988       4.33645398       4.34545645
H       -0.20050864       6.66971339       4.48925826
H       -3.89902108       8.02353197       2.73990944
H       -4.68930427       5.69812003       2.59105144
C       -1.54281716       8.85640633       3.70607758
C       -1.15906671       9.99762889       3.77523439
Br      -0.53857470      11.84288925       3.88705511
C        0.88182927      -0.88182927       0.88182927
C        1.17205664      -2.18420908       0.48563836
C        1.97873754      -2.98957227       1.29365075
C        2.49713717      -2.50608428       2.50917551
C        2.19514309      -1.18674984       2.88354530
C        1.39069807      -0.37796659       2.07539146
C        3.37282518      -3.40709377       3.36777417
O        3.87357169      -2.71589483       4.51432182
C        2.67926124      -4.67848332       3.82946926
C        1.52028949      -4.61947862       4.62198211
C        0.88540873      -5.78960588       5.04430857
C        1.40941637      -7.02809946       4.68076563
C        2.56182692      -7.10686992       3.90156196
C        3.19589127      -5.93635504       3.47881051
H        0.77752666      -2.58272078      -0.44494682
H        2.19485543      -4.00631068       0.97074714
H        2.58798381      -0.77607519       3.81197503
H        1.17143707       0.63950486       2.38787152
H        4.25516108      -3.66388258       2.76840996
H        4.03522808      -3.38315282       5.20210681
H        1.10287702      -3.65449442       4.90734888
H       -0.01381619      -5.72265418       5.65064229
H        2.97239964      -8.07242790       3.61763495
H        4.09445192      -6.01430607       2.86971775
C        0.75567927      -8.23589652       5.11372528
C        0.20817445      -9.24742656       5.47632899
Br      -0.67709454     -10.88298509       6.06262852
