74
Properties=species:S:1:pos:R:3 pbc="F F F"
O        1.78547050       4.15837579      -4.38662427
C        2.19909327       3.40059643      -3.51616960
C        1.25701934       2.58382370      -2.71145307
C        1.77677317       1.77677317      -1.77677317
N        3.12737266       1.70136821      -1.56419556
H        3.46894672       1.07509097      -0.84481315
C        4.03777284       2.43331399      -2.27897437
C        3.65289707       3.27974059      -3.24385439
H        0.20101900       2.68107361      -2.91963456
H        4.32739014       3.88034431      -3.83734266
C        5.42670924       2.25097084      -1.94549776
C        6.58994348       2.09825845      -1.66621111
Br       8.47079486       1.85133543      -1.21462821
O       -1.90091609      -4.75342848      -3.67612598
C       -2.25754802      -3.70189735      -3.15641393
C       -1.32156940      -2.91654740      -2.31417930
C       -1.77677317      -1.77677317      -1.77677317
N       -3.05799664      -1.34376776      -1.99117203
H       -3.35248500      -0.47478040      -1.56158544
C       -3.95971508      -2.03096214      -2.75938398
C       -3.63474074      -3.18616646      -3.35558485
H       -0.32167628      -3.30299781      -2.17705308
H       -4.30564078      -3.76823861      -3.97119773
C       -5.27220467      -1.45459179      -2.89638138
C       -6.37141470      -0.97188163      -3.01111671
Br      -8.14874436      -0.19138011      -3.19663402
O       -4.65613420       3.82302678       1.85130958
C       -3.65263303       3.23079610       2.23243017
C       -2.86214525       2.39631865       1.29383221
C       -1.77677317       1.77677317       1.77677317
N       -1.40223741       1.90289142       3.08780760
H       -0.57293454       1.41338731       3.40252899
C       -2.09674890       2.66005565       3.99325664
C       -3.20146625       3.33248382       3.64254199
H       -3.20130982       2.33058737       0.26982998
H       -3.78656849       3.94352219       4.31498643
C       -1.58480402       2.69977913       5.33859470
C       -1.15605018       2.73304754       6.46531532
Br      -0.46279148       2.78683975       8.28712727
O        4.65684331      -1.85160961       3.82201764
C        3.65299301      -2.23258248       3.23028381
C        2.86254533      -1.29400149       2.39574929
C        1.77677317      -1.77677317       1.77677317
N        1.40180672      -3.08762538       1.90350433
H        0.57220856      -3.40222182       1.41442047
C        2.09626372      -3.99305136       2.66074611
C        3.20136039      -3.64249720       3.33263447
H        3.20205534      -0.27014541       2.32952643
H        3.78643449      -4.31492973       3.94371290
C        1.58385460      -5.33819300       2.70113024
C        1.15471197      -6.46474912       2.73495195
Br       0.46082462      -8.28629508       2.78963880
C       -0.00445707       0.01189536      -1.78238275
H       -0.66409135       0.67374010      -2.43557963
H        0.65740317      -0.63156657      -2.45157240
C       -0.90989263      -0.90692880      -0.91072765
C        0.90977584       0.90977584      -0.90977584
C       -0.00465871       1.77757030       0.00794375
H       -0.66225468       2.44313916      -0.64384735
H        0.64322798       2.43503045       0.67728295
C       -1.78241447       0.00034974      -0.00472694
H       -2.45427497      -0.65498947       0.64260836
H       -2.43311707       0.67328779      -0.65473579
C       -0.91132561       0.90220522       0.91563759
C       -0.01476271      -0.02253852       1.78660255
H       -0.67934791      -0.69751639       2.42135241
H        0.63392994       0.61504881       2.47327442
C        0.01484550      -1.77751727      -0.01636693
H        0.67870853      -2.42144646      -0.68295456
H       -0.62264859      -2.45592969       0.64226336
C        1.78714474       0.01002794       0.00389507
H        2.44202412       0.67113390       0.66197326
H        2.45385902      -0.65136977      -0.64189061
C        0.91606151      -0.90478549       0.90901405
