53
Properties=species:S:1:pos:R:3 pbc="F F F"
C        0.00000000       0.00000000       0.00000000
O        0.87556647       3.24847176      -3.47672024
C        1.28918925       2.49069240      -2.60626558
C        0.34711531       1.67391968      -1.80154904
C        0.86686914       0.86686914      -0.86686914
N        2.21746863       0.79146418      -0.65429154
H        2.55904269       0.16518694       0.06509087
C        3.12786882       1.52340997      -1.36907034
C        2.74299305       2.36983657      -2.33395037
H       -0.70888502       1.77116959      -2.00973054
H        3.41748612       2.97044028      -2.92743864
C        4.51680522       1.34106681      -1.03559374
C        5.68003946       1.18835442      -0.75630708
Br       7.56089084       0.94143140      -0.30472418
O       -3.99561896      -2.48933127      -1.11580825
C       -2.86900540      -2.10630827      -1.41083356
C       -2.09168719      -1.24945223      -0.48144462
C       -0.86686914      -0.86686914      -0.86686914
N       -0.34246142      -1.24766664      -2.07309630
H        0.58856254      -0.93101760      -2.31668371
C       -1.01821736      -2.03670225      -2.96542952
C       -2.25234532      -2.48922345      -2.70521122
H       -2.55205682      -0.97775494       0.45779666
H       -2.82968053      -3.11345883      -3.37222568
C       -0.34113456      -2.35704945      -4.19528177
C        0.22592229      -2.62534023      -5.22528302
Br       1.14280525      -3.05914373      -6.89070794
O       -1.12617158       2.46970994       4.00487697
C       -1.41608168       2.09637179       2.87369376
C       -0.48724202       1.23847575       2.09686626
C       -0.86686914       0.86686914       0.86686914
N       -2.06686490       1.25946480       0.33689465
H       -2.30622066       0.95082773      -0.59790963
C       -2.95841785       2.04997774       1.01195354
C       -2.70358589       2.49230075       2.25089334
H        0.44696197       0.95724117       2.56173590
H       -3.37027295       3.11715601       2.82793607
C       -4.18141188       2.38330990       0.32874400
C       -5.20566938       2.66247558      -0.24344399
Br      -6.86180713       3.11386288      -1.16862358
O        3.87669439      -2.71164461       1.01241948
C        2.80878870      -2.21887505       1.35848347
C        2.02519037      -1.37375843       0.42363523
C        0.86686914      -0.86686914       0.86686914
N        0.41393003      -1.11406649       2.13522783
H       -0.46858673      -0.70674077       2.42098472
C        1.09862983      -1.88638295       3.03533635
C        2.27104639      -2.45426343       2.72147016
H        2.42776165      -1.21010719      -0.56585374
H        2.85208549      -3.07157586       3.39170369
C        0.50029533      -2.05952005       4.33365039
C       -0.00080982      -2.20452238       5.42098841
Br      -0.81105446      -2.43897888       7.17912201
