66
Properties=species:S:1:pos:R:3 pbc="F F F"
O        1.78547050       4.15837579      -4.38662427
C        2.19909327       3.40059643      -3.51616960
C        1.25701934       2.58382370      -2.71145307
C        1.77677317       1.77677317      -1.77677317
N        3.12737266       1.70136821      -1.56419556
H        3.46894672       1.07509097      -0.84481315
C        4.03777284       2.43331399      -2.27897437
Br       5.83597002       2.19724203      -1.84723632
C        3.65289707       3.27974059      -3.24385439
H        0.20101900       2.68107361      -2.91963456
H        4.32739014       3.88034431      -3.83734266
O       -2.33604114      -5.07190711      -2.92252231
C       -2.47787026      -3.86315703      -2.77483201
C       -1.56486804      -3.09462540      -1.89280267
C       -1.77677317      -1.77677317      -1.77677317
N       -2.79650759      -1.15237528      -2.44405356
H       -2.91351971      -0.15348569      -2.32184544
C       -3.66550260      -1.81561800      -3.26894059
Br      -4.99169780      -0.79638975      -4.09236082
C       -3.56631340      -3.13608565      -3.47409301
H       -0.77644893      -3.63585919      -1.38941906
H       -4.22366502      -3.70823835      -4.11317374
O       -4.88722545       3.43682718       2.00641792
C       -3.76964458       3.03524668       2.31096804
C       -2.99136012       2.18037571       1.38056028
C       -1.77677317       1.77677317       1.77677317
N       -1.26336149       2.13497965       2.99459528
H       -0.33980078       1.80299771       3.24605235
C       -1.94049352       2.92118815       3.88837953
Br      -1.07958924       3.30370103       5.49715811
C       -3.16512665       3.39321594       3.61814946
H       -3.44283699       1.92694838       0.43194181
H       -3.74303174       4.01628069       4.28576468
O        4.67545769      -1.85978315       3.79522972
C        3.66241826      -2.23672111       3.21671993
C        2.87295350      -1.29857175       2.38077085
C        1.77677317      -1.77677317       1.77677317
N        1.39062037      -3.08271340       1.91960266
H        0.55342987      -3.39397597       1.44144501
C        2.08367748      -3.98752468       2.67885904
Br       1.40432513      -5.72201563       2.75410762
C        3.19843312      -3.64121193       3.33684700
H        3.22151024      -0.27868809       2.30152884
H        3.78292761      -4.31338986       3.94875964
C       -0.00445707       0.01189536      -1.78238275
H       -0.66409135       0.67374010      -2.43557963
H        0.65740317      -0.63156657      -2.45157240
C       -0.90989263      -0.90692880      -0.91072765
C        0.90977584       0.90977584      -0.90977584
C       -0.00465871       1.77757030       0.00794375
H       -0.66225468       2.44313916      -0.64384735
H        0.64322798       2.43503045       0.67728295
C       -1.78241447       0.00034974      -0.00472694
H       -2.45427497      -0.65498947       0.64260836
H       -2.43311707       0.67328779      -0.65473579
C       -0.91132561       0.90220522       0.91563759
C       -0.01476271      -0.02253852       1.78660255
H       -0.67934791      -0.69751639       2.42135241
H        0.63392994       0.61504881       2.47327442
C        0.01484550      -1.77751727      -0.01636693
H        0.67870853      -2.42144646      -0.68295456
H       -0.62264859      -2.45592969       0.64226336
C        1.78714474       0.01002794       0.00389507
H        2.44202412       0.67113390       0.66197326
H        2.45385902      -0.65136977      -0.64189061
C        0.91606151      -0.90478549       0.90901405
