146
Properties=species:S:1:pos:R:3 pbc="F F F"
C        1.79182423       1.79182423      -1.79182423
C        1.49333803       1.93444177      -3.14508677
C        2.30027497       2.74044367      -3.95130707
C        3.40534716       3.41316190      -3.40730994
C        3.69790403       3.24970961      -2.04457862
C        2.89117117       2.44402074      -1.23781678
C        4.28896715       4.26965592      -4.28424693
C        5.35253980       3.51125012      -4.89970125
C        6.22915060       2.88616267      -5.40695575
C        7.23673773       2.16766610      -5.99000476
C        8.11334853       1.54257865      -6.49725926
C        9.17692084       0.78418145      -7.11270236
C        9.21442953      -0.64916225      -6.63618270
C        9.97479490      -1.00620282      -5.51192339
C        9.99884076      -2.32866896      -5.06310003
C        9.25653439      -3.29924546      -5.73224082
C        8.48736903      -2.95965673      -6.84301890
C        8.46360057      -1.63719348      -7.29167127
Br       9.28918337      -5.08943021      -5.12538838
H        0.64126236       1.42100779      -3.58231343
H        2.06505360       2.83707768      -5.00933900
H        4.56030920       3.74633840      -1.60453857
H        3.13136025       2.32897947      -0.18431622
H        4.70280464       5.09041339      -3.68529303
H        3.67104615       4.75300140      -5.05122798
H       10.14710635       1.25498801      -6.91068211
H        9.07115077       0.79565738      -8.20470098
H       10.55040060      -0.25378031      -4.97647647
H       10.59404517      -2.58847099      -4.19184377
H        7.90108243      -3.71239005      -7.36281888
H        7.85198539      -1.38026586      -8.15433746
C       -1.79182423      -1.79182423      -1.79182423
C       -1.21514058      -2.54749767      -2.81022831
C       -2.02189662      -3.35332939      -3.61679969
C       -3.40797334      -3.41295117      -3.40489450
C       -3.97366210      -2.63692775      -2.38160241
C       -3.16736066      -1.83109264      -1.57455540
C       -4.28244153      -4.27022941      -4.29019905
C       -4.73110216      -3.56480637      -5.46758265
C       -5.10089765      -2.98338337      -6.43798799
C       -5.52593839      -2.31507883      -7.55339138
C       -5.89573388      -1.73365584      -8.52379672
C       -6.34440080      -1.02823582      -9.70116802
C       -5.92763936       0.42409034      -9.69790096
C       -6.75636559       1.40150536      -9.12565524
C       -6.36517869       2.74227998      -9.11037312
C       -5.13970305       3.11102323      -9.66084993
C       -4.29996343       2.15184397     -10.22261173
C       -4.69143813       0.81121798     -10.23785821
Br      -4.61005490       4.92573226      -9.64081890
H       -0.14361341      -2.51332599      -2.98764418
H       -1.56337815      -3.93170231      -4.41638982
H       -5.04815110      -2.65245973      -2.21057535
H       -3.62148766      -1.23714684      -0.78602145
H       -5.14158074      -4.62781719      -3.70911313
H       -3.72790325      -5.17336132      -4.57401095
H       -7.43644496      -1.08797713      -9.78835439
H       -5.95472039      -1.51037361     -10.60641512
H       -7.71114450       1.12245965      -8.68441190
H       -7.01944333       3.48667044      -8.66464506
H       -3.34008357       2.43455047     -10.64597816
H       -4.02408829       0.06827403     -10.67024273
C       -1.79182423       1.79182423       1.79182423
C       -2.55633087       2.80280771       1.21372799
C       -3.36216158       3.60938421       2.02047991
C       -3.41293389       3.40486705       3.40801807
C       -2.62811154       2.38904714       3.97503359
C       -1.82227226       1.58199757       3.16873887
C       -4.27027294       4.29026638       4.28233067
C       -3.56893965       5.47401271       4.72053881
C       -2.99088740       6.44966236       5.08171926
C       -2.32645732       7.57109362       5.49685766
C       -1.74840507       8.54674326       5.85803811
C       -1.04707470       9.73047732       6.29625263
C        0.40291913       9.73292698       5.87144213
C        1.38807280       9.17071718       6.69787109
C        2.72672686       9.16067724       6.29932145
C        3.08561604       9.70635937       5.06878643
C        2.11869496      10.25812519       4.23130097
C        0.78019132      10.26813190       4.63013778
Br       4.89745029       9.69342248       4.52916935
H       -2.52907569       2.97444578       0.14106211
H       -3.94750202       4.40319882       1.56076943
H       -2.63674673       2.22391728       5.05052216
H       -1.22144523       0.79930052       3.62391020
H       -4.61986353       3.71199971       5.14664782
H       -5.17802411       4.56598766       3.73126375
H       -1.10125730       9.82340601       7.38811317
H       -1.53638993      10.63086107       5.90425812
H        1.11677300       8.73325542       7.65661434
H        3.47719403       8.72272135       6.95189062
H        2.39372668      10.67770246       3.26753548
H        0.03117245      10.69267987       3.96454958
C        1.79182423      -1.79182423       1.79182423
C        2.15205540      -3.06497158       1.35583959
C        2.95797519      -3.87131559       2.16273492
C        3.41329975      -3.40634273       3.40617653
C        3.03199872      -2.12556803       3.83462551
C        2.22628862      -1.31868180       3.02803828
C        4.26933298      -4.28663489       4.28690212
C        3.48008140      -5.12743528       5.15597450
C        2.82956890      -5.82042310       5.87227702
C        2.08184931      -6.61695780       6.69560149
C        1.43133681      -7.30994562       7.41190401
C        0.64209218      -8.15073389       8.28097857
C       -0.83688744      -7.85865410       8.17968332
C       -1.43205186      -6.89925841       9.01330892
C       -2.79660853      -6.61932106       8.91055930
C       -3.57120753      -7.29238937       7.96834791
C       -2.99398910      -8.23941621       7.12530409
C       -1.62949175      -8.51922352       7.22834659
Br      -5.41828458      -6.91415487       7.82927124
H        1.80857756      -3.44034104       0.39566497
H        3.22521575      -4.86823659       1.81801794
H        3.35733109      -1.75084838       4.80300670
H        1.94096851      -0.32909525       3.37459219
H        4.94543929      -3.65578308       4.87728869
H        4.92302229      -4.89895888       3.65329436
H        0.96154970      -8.02785714       9.32336964
H        0.81472673      -9.20887211       8.04791029
H       -0.83384993      -6.36106326       9.74588343
H       -3.24193866      -5.87461774       9.56473886
H       -3.59334981      -8.76080630       6.38405478
H       -1.18619526      -9.25358818       6.55866407
C       -0.00445707       0.01189536      -1.78238275
H       -0.66409135       0.67374010      -2.43557963
H        0.65740317      -0.63156657      -2.45157240
C       -0.90989263      -0.90692880      -0.91072765
C        0.90977584       0.90977584      -0.90977584
C       -0.00465871       1.77757030       0.00794375
H       -0.66225468       2.44313916      -0.64384735
H        0.64322798       2.43503045       0.67728295
C       -1.78241447       0.00034974      -0.00472694
H       -2.45427497      -0.65498947       0.64260836
H       -2.43311707       0.67328779      -0.65473579
C       -0.91132561       0.90220522       0.91563759
C       -0.01476271      -0.02253852       1.78660255
H       -0.67934791      -0.69751639       2.42135241
H        0.63392994       0.61504881       2.47327442
C        0.01484550      -1.77751727      -0.01636693
H        0.67870853      -2.42144646      -0.68295456
H       -0.62264859      -2.45592969       0.64226336
C        1.78714474       0.01002794       0.00389507
H        2.44202412       0.67113390       0.66197326
H        2.45385902      -0.65136977      -0.64189061
C        0.91606151      -0.90478549       0.90901405
