117
Properties=species:S:1:pos:R:3 pbc="F F F"
C        0.00000000       0.00000000       0.00000000
C        0.91191060       0.91191060      -0.91191060
C        2.06242164       1.43527587      -0.10779478
C        1.94741144       2.61452689       0.62669167
C        3.02445871       3.09702752       1.38649258
C        4.26651149       2.43132446       1.44611763
C        4.34856893       1.23892327       0.70024777
C        3.27385623       0.74448809      -0.05536476
C        5.41997879       2.95958301       2.24830077
C        6.62139695       2.24004862       2.40322431
C        7.70638967       2.73510382       3.14515994
C        7.63816729       3.97623534       3.77965027
C        6.46249235       4.71547805       3.63043902
C        5.38130506       4.21279548       2.88863303
C        8.82921099       4.51197203       4.52185802
H        0.28386346       1.72054210      -1.29874702
H        1.24610239       0.29818396      -1.75397787
H        1.01389590       3.17446794       0.62528909
H        2.84881455       4.01535066       1.93809797
H        5.25992635       0.64859096       0.67799020
H        3.39980530      -0.18815039      -0.60136968
H        6.75743881       1.26343075       1.95051656
H        8.60867744       2.13047407       3.21314610
H        6.36574630       5.69829811       4.08993896
H        4.50702238       4.85242498       2.82743160
H        9.25066830       5.38033862       4.01228391
H        9.61085126       3.75195217       4.63721164
C        8.48710839       4.90542874       5.86415368
C        8.20059746       5.23494873       6.98832629
Br       7.73733352       5.76775468       8.80601833
C       -0.91191060      -0.91191060      -0.91191060
C       -0.42563484      -0.85226082      -2.32759662
C       -0.87419658       0.13855722      -3.19960730
C       -0.40932126       0.19703953      -4.52271192
C        0.51884442      -0.73042424      -5.04013850
C        0.95918917      -1.71390030      -4.13253329
C        0.50626828      -1.77469336      -2.80528400
C        1.00137879      -0.67235005      -6.46028977
C        2.01280631      -1.52390364      -6.94712393
C        2.46039545      -1.47903813      -8.27769087
C        1.92192458      -0.56860316      -9.18807377
C        0.90815293       0.27802001      -8.73370432
C        0.46742612       0.22843209      -7.40132571
C        2.37515436      -0.57426666     -10.62021270
H       -1.93913710      -0.54587254      -0.81814295
H       -0.86610388      -1.92681406      -0.50534629
H       -1.58875085       0.88675258      -2.86107648
H       -0.79933059       1.00592328      -5.13265993
H        1.67415900      -2.47586657      -4.42881954
H        0.89365690      -2.55418164      -2.15249985
H        2.49183022      -2.25636413      -6.30581909
H        3.23731873      -2.17481400      -8.58851013
H        0.44169735       0.99368313      -9.40948593
H       -0.32153191       0.92372884      -7.13421269
H        1.57643212      -0.91224790     -11.28290722
H        3.25359086      -1.21397216     -10.76521049
C        2.78895479       0.73541840     -11.05275663
C        3.13551265       1.83227964     -11.41501218
Br       3.69586739       3.60581149     -12.00074875
C       -0.91191060       0.91191060       0.91191060
C       -2.35343703       0.58906486       0.66299039
C       -3.06592436       1.22306200      -0.35373970
C       -4.41389540       0.91130441      -0.59020615
C       -5.11591620      -0.04140479       0.17720692
C       -4.36662172      -0.67039276       1.19101547
C       -3.01596001      -0.37113409       1.42888316
C       -6.56166694      -0.36022079      -0.07018512
C       -7.23333021      -1.39123260       0.61612366
C       -8.58847220      -1.68640576       0.39426711
C       -9.33885066      -0.96712550      -0.53697281
C       -8.69961215       0.06922370      -1.22130447
C       -7.34385294       0.35695321      -0.99533865
C      -10.80048122      -1.26184710      -0.71930912
H       -0.67992031       1.95373061       0.66950166
H       -0.62341763       0.72420575       1.95064084
H       -2.58096803       1.96627457      -0.98416785
H       -4.89237671       1.44146656      -1.40777603
H       -4.81130396      -1.41990466       1.83912781
H       -2.49167463      -0.90046191       2.22181188
H       -6.72423861      -2.00542178       1.35153618
H       -9.04642218      -2.48922067       0.96880389
H       -9.24584616       0.67305946      -1.94480018
H       -6.92802952       1.17633694      -1.57235071
H      -11.41498484      -0.43302042      -0.36324140
H      -11.09818477      -2.17751666      -0.19507633
C      -11.12757291      -1.49745496      -2.10173451
C      -11.40151221      -1.69477654      -3.25951578
Br     -11.84444888      -2.01382884      -5.13155016
C        0.91191060      -0.91191060       0.91191060
C        0.05248798      -1.70389095       1.84911335
C       -0.33203323      -1.18342425       3.08385564
C       -1.14508591      -1.92455910       3.95552047
C       -1.60831927      -3.21910844       3.64092916
C       -1.20978736      -3.71366467       2.38336711
C       -0.40410468      -2.97604790       1.50176587
C       -2.46528055      -4.01341449       4.58312710
C       -3.02429031      -5.25645364       4.22605793
C       -3.81884596      -6.00707472       5.10810479
C       -4.10235270      -5.54354254       6.39356252
C       -3.54894651      -4.31968371       6.77679418
C       -2.75713516      -3.57413415       5.88846852
C       -4.90788217      -6.38682134       7.34038583
H        1.60093857      -0.25285254       1.44936148
H        1.49491760      -1.55639274       0.24695389
H       -0.01041113      -0.18811712       3.38536875
H       -1.40836779      -1.44254716       4.89188787
H       -1.51209786      -4.69970070       2.04292428
H       -0.13994957      -3.41230286       0.54067131
H       -2.86150200      -5.68792194       3.24393307
H       -4.20857312      -6.96508265       4.76949586
H       -3.72433700      -3.92263562       7.77580683
H       -2.37070794      -2.63420092       6.26852278
H       -4.29277115      -6.74261428       8.16887988
H       -5.35724215      -7.24900983       6.83382410
C       -6.01843743      -5.65475694       7.89206393
C       -6.94852746      -5.04165301       8.35409435
Br      -8.45240437      -4.05031580       9.10115845
