138
Properties=species:S:1:pos:R:3 pbc="F F F"
C        1.82181462       1.82181462      -1.82181462
C        2.97232566       2.34517989      -1.01769880
C        2.85731546       3.52443091      -0.28321235
C        3.93436273       4.00693155       0.47658855
C        5.17641552       3.34122849       0.53621361
C        5.25847295       2.14882730      -0.20965625
C        4.18376026       1.65439211      -0.96526879
C        6.32988281       3.86948704       1.33839674
C        7.53130097       3.14995265       1.49332028
C        8.61629370       3.64500784       2.23525591
C        8.54807132       4.88613936       2.86974625
C        7.37239638       5.62538207       2.72053499
C        6.29120908       5.12269951       1.97872901
C        9.73911501       5.42187606       3.61195400
H        1.19376749       2.63044612      -2.20865105
H        2.15600642       1.20808799      -2.66388189
H        1.92379992       4.08437196      -0.28461494
H        3.75871857       4.92525469       1.02819395
H        6.16983038       1.55849498      -0.23191382
H        4.30970932       0.72175364      -1.51127371
H        7.66734284       2.17333477       1.04061253
H        9.51858146       3.04037809       2.30324208
H        7.27565033       6.60820213       3.18003494
H        5.41692640       5.76232901       1.91752758
H       10.16057232       6.29024265       3.10237989
H       10.52075528       4.66185619       3.72730762
C        9.39701241       5.81533276       4.95424965
C        9.11050149       6.14485275       6.07842227
Br       8.64723755       6.67765871       7.89611430
C       -1.82181462      -1.82181462      -1.82181462
C       -3.10829387      -2.11462038      -1.11229011
C       -3.21894655      -3.20066594      -0.24534624
C       -4.42313439      -3.46656973       0.42499840
C       -5.57352008      -2.66742165       0.25951133
C       -5.42751250      -1.57338042      -0.61606358
C       -4.22462405      -1.29493686      -1.28386024
C       -6.86330380      -2.96496940       0.96730010
C       -7.97738839      -2.10548352       0.89493858
C       -9.18900605      -2.38509274       1.54805316
C       -9.34250323      -3.53932172       2.31736052
C       -8.25684616      -4.41475084       2.39435355
C       -7.04806402      -4.12718724       1.74007168
C      -10.66374593      -3.84749252       2.96220137
H       -1.25903231      -2.73517402      -2.03865833
H       -1.98483710      -1.28297587      -2.76016333
H       -2.36633878      -3.85479080      -0.07165723
H       -4.42216695      -4.32416623       1.09055387
H       -6.25197050      -0.89457810      -0.81369058
H       -4.17542538      -0.42793992      -1.93937138
H       -7.94291893      -1.18259357       0.32544742
H      -10.01258661      -1.68213730       1.43900643
H       -8.33157890      -5.33865350       2.96641488
H       -6.25712890      -4.86079391       1.85619498
H      -11.13026569      -4.72060732       2.50243793
H      -11.35445793      -2.99857638       2.89773046
C      -10.52040741      -4.10872324       4.37103514
C      -10.40036141      -4.32750398       5.55093342
Br     -10.20625717      -4.68125392       7.45872914
C       -1.82181462       1.82181462       1.82181462
C       -2.47295400       2.87883532       0.98341504
C       -1.83496386       4.09347242       0.73652245
C       -2.44399769       5.07793731      -0.05722927
C       -3.71749926       4.90110400      -0.63717287
C       -4.33250131       3.66071239      -0.37625720
C       -3.72710997       2.66718460       0.40912658
C       -4.37077998       5.96309450      -1.47290138
C       -5.58862056       5.74696530      -2.14765253
C       -6.20778576       6.74114866      -2.92288880
C       -5.63066070       8.00331655      -3.06951282
C       -4.42953583       8.24737861      -2.39967098
C       -3.81565510       7.24755330      -1.62802881
C       -6.33634834       9.07000976      -3.85732103
H       -1.18164438       2.25383336       2.59738692
H       -2.55712282       1.16893846       2.30191502
H       -0.84875828       4.29124850       1.15278004
H       -1.87560115       5.99010298      -0.20992482
H       -5.31385683       3.42209009      -0.77570774
H       -4.25189026       1.72676286       0.56408355
H       -6.10218468       4.79266401      -2.09478362
H       -7.15424793       6.50852641      -3.40705687
H       -3.94796471       9.22210498      -2.46625217
H       -2.88387445       7.52304717      -1.14519378
H       -6.67805336       9.87681722      -3.20643549
H       -7.19511517       8.66720880      -4.40702011
C       -5.48063949       9.64190231      -4.86444628
C       -4.76398333      10.12086232      -5.70791368
Br      -3.60521093      10.89530015      -7.07172913
C        1.82181462      -1.82181462       1.82181462
C        2.49763614      -2.85916919       0.97839902
C        1.87894111      -4.07863512       0.70738250
C        2.51112994      -5.04458044      -0.09100465
C        3.78961824      -4.84361053      -0.65179837
C        4.38480819      -3.59887748      -0.36672917
C        3.75625065      -2.62371343       0.42345708
C        4.46761144      -5.88594138      -1.49257972
C        5.69116239      -5.64515776      -2.14838682
C        6.33336829      -6.62093191      -2.92825458
C        5.77485124      -7.88844931      -3.09883612
C        4.56844438      -8.15687938      -2.44808030
C        3.93149449      -7.17534832      -1.67166323
C        6.50468200      -8.93543201      -3.89107694
H        1.17736640      -2.27227604       2.58322222
H        2.54217347      -1.16581807       2.31998475
H        0.89010076      -4.29466008       1.10802598
H        1.95681403      -5.96196220      -0.26299692
H        5.36804367      -3.34229738      -0.75010188
H        4.26655665      -1.67867655       0.59750347
H        6.19139719      -4.68504625      -2.07637836
H        7.28289542      -6.36968938      -3.39686732
H        4.10064390      -9.13681663      -2.53364300
H        2.99722771      -7.46924697      -1.20474685
H        6.84849120      -9.74622765      -3.24628377
H        7.36514080      -8.51431645      -4.42415340
C        5.66972127      -9.50508855      -4.91671430
C        4.97044165      -9.98217591      -5.77568558
Br       3.83976565     -10.75358581      -7.16456950
C       -0.00445707       0.01189536      -1.78238275
H       -0.66409135       0.67374010      -2.43557963
H        0.65740317      -0.63156657      -2.45157240
C       -0.90989263      -0.90692880      -0.91072765
C        0.90977584       0.90977584      -0.90977584
C       -0.00465871       1.77757030       0.00794375
H       -0.66225468       2.44313916      -0.64384735
H        0.64322798       2.43503045       0.67728295
C       -1.78241447       0.00034974      -0.00472694
H       -2.45427497      -0.65498947       0.64260836
H       -2.43311707       0.67328779      -0.65473579
C       -0.91132561       0.90220522       0.91563759
C       -0.01476271      -0.02253852       1.78660255
H       -0.67934791      -0.69751639       2.42135241
H        0.63392994       0.61504881       2.47327442
C        0.01484550      -1.77751727      -0.01636693
H        0.67870853      -2.42144646      -0.68295456
H       -0.62264859      -2.45592969       0.64226336
C        1.78714474       0.01002794       0.00389507
H        2.44202412       0.67113390       0.66197326
H        2.45385902      -0.65136977      -0.64189061
C        0.91606151      -0.90478549       0.90901405
