130
Properties=species:S:1:pos:R:3 pbc="F F F"
C        1.82181462       1.82181462      -1.82181462
C        2.97232566       2.34517989      -1.01769880
C        2.85731546       3.52443091      -0.28321235
C        3.93436273       4.00693155       0.47658855
C        5.17641552       3.34122849       0.53621361
C        5.25847295       2.14882730      -0.20965625
C        4.18376026       1.65439211      -0.96526879
C        6.32988281       3.86948704       1.33839674
C        7.53130097       3.14995265       1.49332028
C        8.61629370       3.64500784       2.23525591
C        8.54807132       4.88613936       2.86974625
C        7.37239638       5.62538207       2.72053499
C        6.29120908       5.12269951       1.97872901
C        9.73911501       5.42187606       3.61195400
Br       9.27756743       5.95270801       5.42291163
H        1.19376749       2.63044612      -2.20865105
H        2.15600642       1.20808799      -2.66388189
H        1.92379992       4.08437196      -0.28461494
H        3.75871857       4.92525469       1.02819395
H        6.16983038       1.55849498      -0.23191382
H        4.30970932       0.72175364      -1.51127371
H        7.66734284       2.17333477       1.04061253
H        9.51858146       3.04037809       2.30324208
H        7.27565033       6.60820213       3.18003494
H        5.41692640       5.76232901       1.91752758
H       10.16057232       6.29024265       3.10237989
H       10.52075528       4.66185619       3.72730762
C       -1.82181462      -1.82181462      -1.82181462
C       -1.03897126      -2.28356501      -3.01266808
C       -0.97724529      -1.51419066      -4.17352279
C       -0.23511967      -1.94549547      -5.28409058
C        0.47505897      -3.16409639      -5.29239298
C        0.39994416      -3.91451194      -4.10238872
C       -0.33263240      -3.48679957      -2.98398918
C        1.25494793      -3.62778067      -6.48814035
C        2.05789309      -4.78521653      -6.46060989
C        2.78162513      -5.22754571      -7.58012505
C        2.74481701      -4.52428652      -8.78499492
C        1.94543172      -3.38032462      -8.84235055
C        1.22632331      -2.94338474      -7.71811815
C        3.48160673      -5.04433012      -9.98631369
Br       4.64205161      -3.69097636     -10.75843906
H       -2.69323238      -1.22687453      -2.11275774
H       -2.16280849      -2.65942823      -1.20573958
H       -1.50087274      -0.56152704      -4.23038704
H       -0.22942202      -1.28261739      -6.14373990
H        0.91064069      -4.86786112      -4.00301876
H       -0.34172100      -4.10931903      -2.09169664
H        2.15029940      -5.38750102      -5.56286346
H        3.37239572      -6.13714137      -7.49097183
H        1.86748219      -2.80644252      -9.76485719
H        0.63385920      -2.04423186      -7.85135516
H        2.78624282      -5.37456353     -10.76011437
H        4.14652900      -5.87611512      -9.72571773
C       -1.82181462       1.82181462       1.82181462
C       -3.08489592       2.15969332       1.09061511
C       -3.15144427       3.26706866       0.24644580
C       -4.33377158       3.57530498      -0.44437083
C       -5.50519279       2.79914194      -0.32290433
C       -5.40368323       1.68277486       0.53049841
C       -4.22287644       1.36209175       1.21845297
C       -6.77151065       3.14179692      -1.05233447
C       -7.90586970       2.30657709      -1.02451346
C       -9.09571053       2.62829681      -1.69796172
C       -9.20578895       3.80261927      -2.44394378
C       -8.09938116       4.65452684      -2.47666454
C       -6.91257866       4.32489549      -1.80229457
C      -10.50475012       4.15520486      -3.11091792
Br     -10.26018615       4.54548661      -4.99830895
H       -1.24387852       2.71701375       2.07197239
H       -2.01821472       1.26602276       2.74373882
H       -2.28069976       3.90526619       0.10682087
H       -4.29845673       4.44730212      -1.08997954
H       -6.24739001       1.01873511       0.69411406
H       -4.20803126       0.47977753       1.85492788
H       -7.90502967       1.37065539      -0.47561999
H       -9.93705662       1.94207401      -1.62341316
H       -8.14038261       5.59243764      -3.02900273
H       -6.10301537       5.04265743      -1.88394497
H      -10.96203729       5.02826309      -2.64186530
H      -11.21553638       3.32105668      -3.08128920
C        1.82181462      -1.82181462       1.82181462
C        0.98357574      -2.87942393       2.47220469
C        0.33970100      -2.64002256       3.68523517
C       -0.45251944      -3.63009609       4.28712907
C       -0.63609714      -4.90504411       3.71248342
C        0.02031390      -5.11324529       2.48339730
C        0.80740492      -4.12597064       1.87004559
C       -1.47226730      -5.96541695       4.36782345
C       -1.75180279      -7.19685607       3.74288006
C       -2.52588789      -8.19525584       4.35667767
C       -3.06897209      -8.00529710       5.62813941
C       -2.79542236      -6.79784811       6.27481771
C       -2.02222651      -5.80371351       5.65369258
C       -3.84730874      -9.10668208       6.28966373
Br      -5.58499536      -8.49035434       6.90200483
H        2.30184614      -1.17134724       2.55967128
H        2.59728272      -2.25079064       1.17990293
H        0.43850278      -1.67504366       4.17924038
H       -0.92817643      -3.35934121       5.22461453
H       -0.05558584      -6.05970226       1.95612276
H        1.27967358      -4.34777599       0.91528711
H       -1.37605601      -7.42516926       2.75095183
H       -2.69203428      -9.12746116       3.82029060
H       -3.18000954      -6.60780439       7.27602267
H       -1.86223873      -4.89670506       6.22726150
H       -3.30775683      -9.50570449       7.15048743
H       -4.06350075      -9.92542752       5.59337709
C       -0.00445707       0.01189536      -1.78238275
H       -0.66409135       0.67374010      -2.43557963
H        0.65740317      -0.63156657      -2.45157240
C       -0.90989263      -0.90692880      -0.91072765
C        0.90977584       0.90977584      -0.90977584
C       -0.00465871       1.77757030       0.00794375
H       -0.66225468       2.44313916      -0.64384735
H        0.64322798       2.43503045       0.67728295
C       -1.78241447       0.00034974      -0.00472694
H       -2.45427497      -0.65498947       0.64260836
H       -2.43311707       0.67328779      -0.65473579
C       -0.91132561       0.90220522       0.91563759
C       -0.01476271      -0.02253852       1.78660255
H       -0.67934791      -0.69751639       2.42135241
H        0.63392994       0.61504881       2.47327442
C        0.01484550      -1.77751727      -0.01636693
H        0.67870853      -2.42144646      -0.68295456
H       -0.62264859      -2.45592969       0.64226336
C        1.78714474       0.01002794       0.00389507
H        2.44202412       0.67113390       0.66197326
H        2.45385902      -0.65136977      -0.64189061
C        0.91606151      -0.90478549       0.90901405
