126
Properties=species:S:1:pos:R:3 pbc="F F F"
C        1.82735598       1.82735598      -1.82735598
C        0.94900727       2.74661884      -2.65891190
C        1.75841017       3.59907887      -3.63288527
Br       0.50556019       4.60850084      -4.75513593
N        2.58502143       4.58544869      -2.98664470
C        3.90648282       4.34807113      -2.69056791
O        4.44805733       3.26496343      -2.88492560
C        4.65389963       5.47444067      -2.06720936
C        5.74412940       5.18166693      -1.24263620
C        6.45774176       6.21610908      -0.62807398
C        6.07425571       7.54870501      -0.79877459
N        6.86029363       8.58119577      -0.27708006
C        5.03980316       7.83769485      -1.69219123
C        4.31962443       6.81102747      -2.31261687
H        2.42200162       1.15052852      -2.44618336
H        2.47646268       2.37593096      -1.14093351
H        0.35514664       3.38892181      -1.99427333
H        0.22710856       2.13983659      -3.22227419
H        2.35139890       2.98339268      -4.31649928
H        2.13664446       5.44320680      -2.69838604
H        6.04932561       4.14970553      -1.08178943
H        7.31890024       5.96858509      -0.01239973
H        6.36871370       9.46368561      -0.17462501
H        7.36682337       8.32707458       0.56567754
H        4.78930971       8.87101578      -1.91987357
H        3.53281950       7.07811000      -3.01177312
C       -1.82735598      -1.82735598      -1.82735598
C       -2.99201186      -2.35539819      -1.00712796
C       -3.87137339      -3.31897834      -1.80002258
Br      -5.22758146      -4.05362102      -0.58799448
N       -4.60321053      -2.68681764      -2.86708665
C       -4.13011619      -2.65734440      -4.15766128
O       -3.02900598      -3.09574330      -4.47319708
C       -5.01377541      -2.01374535      -5.16802891
C       -4.43028463      -1.43782416      -6.30032374
C       -5.23073039      -0.81036176      -7.26083267
C       -6.61421996      -0.71855619      -7.08895915
N       -7.41807032      -0.19421540      -8.10628374
C       -7.19765402      -1.37161569      -6.00041954
C       -6.40673467      -2.00255072      -5.03398338
H       -1.18676734      -2.62969275      -2.20225340
H       -2.15133021      -1.18923597      -2.65276096
H       -3.59104329      -1.51354069      -0.63375780
H       -2.60091246      -2.86961614      -0.11869075
H       -3.30163973      -4.17532920      -2.17432193
H       -5.45519894      -2.20537355      -2.61766481
H       -3.35284645      -1.48238491      -6.44558922
H       -4.76004615      -0.39254929      -8.14728962
H       -8.33202240       0.11704888      -7.79205081
H       -6.95368758       0.50430108      -8.67883391
H       -8.27986304      -1.40130852      -5.89902750
H       -6.89991448      -2.51154934      -4.21123881
C       -1.82735598       1.82735598       1.82735598
C       -0.96177949       2.54081524       2.85194328
C       -1.78628439       3.37514990       3.82894001
Br      -0.57622499       4.10174314       5.19122883
N       -2.41954732       4.51667935       3.22088815
C       -3.71380325       4.47215427       2.75916434
O       -4.38725310       3.44714392       2.76354934
C       -4.25669075       5.73994921       2.19890970
C       -5.26536322       5.66948491       1.23358440
C       -5.78575006       6.84155721       0.67461755
C       -5.28540508       8.09277847       1.04355175
N       -5.88860409       9.26168001       0.56828537
C       -4.34043199       8.15883507       2.07042218
C       -3.81343566       6.99302500       2.63680811
H       -2.56062651       1.16440652       2.29368047
H       -2.32733741       2.51980082       1.14618893
H       -0.22748592       3.17467146       2.33618440
H       -0.38143225       1.79534049       3.41244661
H       -2.51914728       2.76543590       4.36670768
H       -1.85090520       5.34043662       3.08689548
H       -5.65751839       4.70458356       0.91871863
H       -6.58849046       6.76603798      -0.05464339
H       -5.29691805      10.08484301       0.62526327
H       -6.31482984       9.16144270      -0.34805213
H       -4.01012625       9.12449131       2.44558151
H       -3.09199083       7.08783764       3.44287416
C        1.82735598      -1.82735598       1.82735598
C        3.23622769      -1.85852370       1.25978662
C        4.15641040      -2.79373087       2.04023305
Br       5.88310841      -2.87332073       1.11276782
N        4.45027579      -2.33391898       3.37292005
C        3.72728041      -2.75327787       4.46456358
O        2.74442885      -3.48109207       4.37242544
C        4.17263858      -2.23562150       5.78728959
C        3.23171757      -2.12182772       6.81488725
C        3.61365935      -1.62333006       8.06493542
C        4.92526495      -1.20085155       8.29561880
N        5.32630536      -0.81388277       9.57838133
C        5.87776235      -1.39895642       7.29297047
C        5.50695253      -1.89712417       6.03919208
H        1.36303293      -2.81675807       1.83892250
H        1.78689215      -1.38224130       2.82419370
H        3.65051603      -0.84109423       1.24673152
H        3.19340159      -2.18425183       0.21156593
H        3.77337196      -3.81889510       2.05902381
H        5.17352014      -1.63566403       3.46905313
H        2.20060821      -2.42860672       6.65160564
H        2.87289744      -1.56823062       8.85875699
H        6.16724919      -0.24512535       9.59464978
H        4.58155341      -0.40899775      10.13766925
H        6.92418305      -1.17279759       7.48321843
H        6.28009398      -2.05039395       5.29221470
C       -0.00445707       0.01189536      -1.78238275
H       -0.66409135       0.67374010      -2.43557963
H        0.65740317      -0.63156657      -2.45157240
C       -0.90989263      -0.90692880      -0.91072765
C        0.90977584       0.90977584      -0.90977584
C       -0.00465871       1.77757030       0.00794375
H       -0.66225468       2.44313916      -0.64384735
H        0.64322798       2.43503045       0.67728295
C       -1.78241447       0.00034974      -0.00472694
H       -2.45427497      -0.65498947       0.64260836
H       -2.43311707       0.67328779      -0.65473579
C       -0.91132561       0.90220522       0.91563759
C       -0.01476271      -0.02253852       1.78660255
H       -0.67934791      -0.69751639       2.42135241
H        0.63392994       0.61504881       2.47327442
C        0.01484550      -1.77751727      -0.01636693
H        0.67870853      -2.42144646      -0.68295456
H       -0.62264859      -2.45592969       0.64226336
C        1.78714474       0.01002794       0.00389507
H        2.44202412       0.67113390       0.66197326
H        2.45385902      -0.65136977      -0.64189061
C        0.91606151      -0.90478549       0.90901405
