49
Properties=species:S:1:pos:R:3 pbc="F F F"
C        0.00000000       0.00000000       0.00000000
C        0.88267169       0.88267169      -0.88267169
C        0.62376650       2.25005877      -0.96672078
C        1.42884602       3.05818833      -1.77208579
C        2.48729387       2.49391978      -2.48836965
Br       3.55370339       3.62978632      -3.56901731
C        2.73915533       1.12128050      -2.39805449
O        3.77562256       0.56914015      -3.10007409
C        1.93707142       0.30976460      -1.59404364
H       -0.19819348       2.69575199      -0.41200737
H        1.22427003       4.12389873      -1.83531390
H        3.81173750      -0.38621237      -2.93071332
H        2.12555322      -0.75628008      -1.51785883
C       -0.88267169      -0.88267169      -0.88267169
C       -0.50984741      -2.20371586      -1.12698278
C       -1.31467733      -3.01179115      -1.93265166
C       -2.48679743      -2.49376030      -2.48902557
Br      -3.54830049      -3.62768491      -3.57652161
C       -2.85249267      -1.16737639      -2.23862126
O       -4.00029550      -0.66045402      -2.78408730
C       -2.05107569      -0.35612360      -1.43368036
H        0.40091738      -2.61329306      -0.69719022
H       -1.02111230      -4.04131028      -2.12106008
H       -4.10622349       0.26697462      -2.51698959
H       -2.32742388       0.67416193      -1.23387002
C       -0.88267169       0.88267169       0.88267169
C       -2.21307806       0.52706552       1.10040247
C       -3.02101457       1.33164019       1.90646539
C       -2.49365792       2.48660915       2.48931623
Br      -3.62780361       3.54851877       3.57618463
C       -1.15809689       2.83542667       2.26496675
O       -0.64227388       3.96686024       2.83570269
C       -0.34681695       2.03395974       1.46010297
H       -2.62991897      -0.37034050       0.64998742
H       -4.05781355       1.05146361       2.07420550
H        0.28928630       4.06518988       2.58033487
H        0.69073900       2.29693685       1.28093412
C        0.88267169      -0.88267169       0.88267169
C        2.21123903      -0.52353546       1.10577156
C        3.01917077      -1.32810420       1.91184518
C        2.49364925      -2.48659538       2.48933867
Br       3.62771489      -3.54835502       3.57643711
C        1.15992669      -2.83893831       2.25962531
O        0.64590216      -3.97381906       2.82511559
C        0.34865764      -2.03749173       1.45473028
H        2.62664618       0.37662200       0.65954172
H        4.05453302      -1.04517045       2.08377919
H       -0.28452361      -4.07429393       2.56646813
H       -0.68748007      -2.30319214       1.27141990
