70
Properties=species:S:1:pos:R:3 pbc="F F F"
C        1.79257572       1.79257572      -1.79257572
C        1.53367053       3.15996279      -1.87662480
C        2.33875005       3.96809236      -2.68198981
C        3.39719789       3.40382380      -3.39827368
Br       4.46360741       4.53969035      -4.47892133
C        3.64905935       2.03118452      -3.30795851
O        4.68552659       1.47904418      -4.00997812
C        2.84697544       1.21966863      -2.50394766
H        0.71171055       3.60565602      -1.32191140
H        2.13417405       5.03380276      -2.74521792
H        4.72164152       0.52369165      -3.84061735
H        3.03545724       0.15362395      -2.42776286
C       -1.79257572      -1.79257572      -1.79257572
C       -1.20035160      -2.67014155      -2.69976498
C       -2.00460734      -3.47746768      -3.50675720
C       -3.39566133      -3.40193169      -3.40170234
Br      -4.44760804      -4.51701029      -4.51760076
C       -3.98069660      -2.51844529      -2.48906050
O       -5.34306985      -2.44459574      -2.38688330
C       -3.18058031      -1.70975021      -1.68026121
H       -0.11853499      -2.73405661      -2.78668636
H       -1.53963628      -4.16060610      -4.21295235
H       -5.58439490      -1.78670086      -1.71485476
H       -3.62612380      -1.02159068      -0.96912955
C       -1.79257572       1.79257572       1.79257572
C       -3.12310531       1.43720886       2.00994395
C       -3.93104213       2.24178394       2.81600615
C       -3.40356253       3.39651411       3.39921874
Br      -4.53771358       4.45843390       4.48607161
C       -2.06787831       3.74509263       3.17523145
O       -1.55193479       4.87629249       3.74632160
C       -1.25659764       2.94362431       2.37036978
H       -3.54004229       0.53998937       1.55924630
H       -4.96793738       1.96179428       2.98346307
H       -0.62029859       4.97447669       3.49117524
H       -0.21894666       3.20641680       2.19148058
C        1.79257572      -1.79257572       1.79257572
C        3.12164358      -1.43439263       2.01422191
C        3.92957662      -2.23896297       2.82029263
C        3.40355563      -3.39650312       3.39923662
Br       4.53764305      -4.45830326       4.48627278
C        2.06933270      -3.74789416       3.17097553
O        1.55481867      -4.88184414       3.73788607
C        1.25806068      -2.94644209       2.36608896
H        3.53744096      -0.53497809       1.56685892
H        4.96532990      -1.95677369       2.99109114
H        0.62408417      -4.98173978       3.48012656
H        0.22153697      -3.21140718       2.18389990
C       -0.00445707       0.01189536      -1.78238275
H       -0.66409135       0.67374010      -2.43557963
H        0.65740317      -0.63156657      -2.45157240
C       -0.90989263      -0.90692880      -0.91072765
C        0.90977584       0.90977584      -0.90977584
C       -0.00465871       1.77757030       0.00794375
H       -0.66225468       2.44313916      -0.64384735
H        0.64322798       2.43503045       0.67728295
C       -1.78241447       0.00034974      -0.00472694
H       -2.45427497      -0.65498947       0.64260836
H       -2.43311707       0.67328779      -0.65473579
C       -0.91132561       0.90220522       0.91563759
C       -0.01476271      -0.02253852       1.78660255
H       -0.67934791      -0.69751639       2.42135241
H        0.63392994       0.61504881       2.47327442
C        0.01484550      -1.77751727      -0.01636693
H        0.67870853      -2.42144646      -0.68295456
H       -0.62264859      -2.45592969       0.64226336
C        1.78714474       0.01002794       0.00389507
H        2.44202412       0.67113390       0.66197326
H        2.45385902      -0.65136977      -0.64189061
C        0.91606151      -0.90478549       0.90901405
