114
Properties=species:S:1:pos:R:3 pbc="F F F"
C        1.79325501       1.79325501      -1.79325501
C        1.41230683       3.10987094      -2.03852876
C        2.21262155       3.92559968      -2.84631983
C        3.40258346       3.44113480      -3.41976611
C        3.76735497       2.10976004      -3.15738308
C        2.96953060       1.29745514      -2.35403195
O        3.39433687       0.01422193      -2.14907509
C        4.23924133       4.30280744      -4.27229417
C        4.66286072       5.56701077      -3.82774809
C        5.45596859       6.38833395      -4.63544471
C        5.83853001       5.95650403      -5.90442170
C        5.42837537       4.70433413      -6.36285164
C        4.63612626       3.88377651      -5.55507101
O        5.79915876       4.27564554      -7.60765986
Br       6.91316168       7.10206787      -6.96556953
H        0.49710018       3.51360415      -1.61270476
H        1.89150069       4.94853247      -3.03725937
H        4.68680456       1.69806917      -3.56847570
H        2.74394896      -0.41806519      -1.56598165
H        4.38725931       5.91952477      -2.83528350
H        5.77127406       7.35956669      -4.26280979
H        4.30971867       2.91339456      -5.92121715
H        5.43906939       3.38772430      -7.76367818
C       -1.79325501      -1.79325501      -1.79325501
C       -1.36054062      -3.07419993      -2.12596598
C       -2.16047924      -3.88951553      -2.93454629
C       -3.40156326      -3.44017709      -3.42174402
C       -3.81798136      -2.14451611      -3.07200063
C       -3.02058885      -1.33252472      -2.26790413
O       -3.49749773      -0.08516652      -1.97496964
C       -4.23780687      -4.30099296      -4.27554311
C       -4.57396434      -5.60627146      -3.87738378
C       -5.36643116      -6.42679335      -4.68652274
C       -5.83610642      -5.95290976      -5.91043956
C       -5.51350704      -4.65964755      -6.32240655
C       -4.72185416      -3.83993845      -5.51318117
O       -5.97001031      -4.18948385      -7.52297000
Br      -6.90649440      -7.09895975      -6.97534493
H       -0.40526234      -3.45007695      -1.76806979
H       -1.79922479      -4.88339573      -3.19467201
H       -4.77711512      -1.76165934      -3.41457497
H       -2.83976831       0.35104743      -1.40314454
H       -4.22943261      -5.99287517      -2.91975980
H       -5.61293755      -7.43060100      -4.35011199
H       -4.46389185      -2.83672027      -5.84371826
H       -5.66331726      -3.27721796      -7.64993664
C       -1.79325501       1.79325501       1.79325501
C       -3.14710078       1.49359883       1.92000692
C       -3.96388432       2.29621674       2.72443999
C       -3.44316591       3.40701843       3.41330003
C       -2.07400960       3.68929327       3.27119522
C       -1.26131307       2.89061375       2.46909087
O        0.05925035       3.23390885       2.38297539
C       -4.30804662       4.25068119       4.25561512
C       -5.11893800       3.68448602       5.25419555
C       -5.94255368       4.48259960       6.05459398
C       -5.96804852       5.86373761       5.86766961
C       -5.16953839       6.44415698       4.88186577
C       -4.34632253       5.64610357       4.08254768
O       -5.19133722       7.79858752       4.69253942
Br      -7.09929285       6.90710239       6.97440384
H       -3.58089440       0.64402962       1.39848507
H       -5.02279875       2.05366242       2.80083136
H       -1.62619582       4.52986787       3.79728574
H        0.49202390       2.58245884       1.80143048
H       -5.10543962       2.60969017       5.42693780
H       -6.55585631       4.01635841       6.82143582
H       -3.73421450       6.10199335       3.30812253
H       -4.57643788       8.03464623       3.97938777
C        1.79325501      -1.79325501       1.79325501
C        3.14579677      -1.48989375       1.92501601
C        3.96257470      -2.29247435       2.72949201
C        3.44314660      -3.40692822       3.41340956
C        2.07528814      -3.69290803       3.26630192
C        1.26260209      -2.89426050       2.46415511
O       -0.05664816      -3.24128288       2.37299917
C        4.30803119      -4.25052276       4.25578900
C        5.11418028      -3.68490923       5.25853006
C        5.93778882      -4.48295266       6.05900578
C        5.96803568      -5.86343424       5.86798582
C        5.17427222      -6.44327315       4.87801577
C        4.35106041      -5.64529196       4.07862140
O        5.20074939      -7.79705140       4.68466337
Br       7.09908767      -6.90672552       6.97498590
H        3.57858709      -0.63744003       1.40738198
H        5.02051317      -2.04695319       2.80982617
H        1.62843672      -4.53642345       3.78848926
H       -0.48963500      -2.58938383       1.79211659
H        5.09690139      -2.61068774       5.43447846
H        6.54735447      -4.01718685       6.82910922
H        3.74268090      -6.10067985       3.30096963
H        4.58872691      -8.03280444       3.96894052
C       -0.00445707       0.01189536      -1.78238275
H       -0.66409135       0.67374010      -2.43557963
H        0.65740317      -0.63156657      -2.45157240
C       -0.90989263      -0.90692880      -0.91072765
C        0.90977584       0.90977584      -0.90977584
C       -0.00465871       1.77757030       0.00794375
H       -0.66225468       2.44313916      -0.64384735
H        0.64322798       2.43503045       0.67728295
C       -1.78241447       0.00034974      -0.00472694
H       -2.45427497      -0.65498947       0.64260836
H       -2.43311707       0.67328779      -0.65473579
C       -0.91132561       0.90220522       0.91563759
C       -0.01476271      -0.02253852       1.78660255
H       -0.67934791      -0.69751639       2.42135241
H        0.63392994       0.61504881       2.47327442
C        0.01484550      -1.77751727      -0.01636693
H        0.67870853      -2.42144646      -0.68295456
H       -0.62264859      -2.45592969       0.64226336
C        1.78714474       0.01002794       0.00389507
H        2.44202412       0.67113390       0.66197326
H        2.45385902      -0.65136977      -0.64189061
C        0.91606151      -0.90478549       0.90901405
