101
Properties=species:S:1:pos:R:3 pbc="F F F"
C        0.00000000       0.00000000       0.00000000
C        0.88335098       0.88335098      -0.88335098
C        0.50240280       2.19996691      -1.12862474
C        1.30271753       3.01569565      -1.93641581
C        2.49267944       2.53123078      -2.50986208
C        2.85745095       1.19985602      -2.24747906
C        2.05962658       0.38755112      -1.44412793
O        2.48443284      -0.89568209      -1.23917107
C        3.32933731       3.39290341      -3.36239014
C        3.75295670       4.65710674      -2.91784406
C        4.54606457       5.47842992      -3.72554069
C        4.92862599       5.04660001      -4.99451767
C        4.51847134       3.79443011      -5.45294761
C        3.72622223       2.97387248      -4.64516699
O        4.88925474       3.36574152      -6.69775584
H       -0.41280385       2.60370012      -0.70280074
H        0.98159667       4.03862844      -2.12735535
H        3.77690054       0.78816514      -2.65857168
H        1.83404493      -1.32796922      -0.65607763
H        3.47735529       5.00962075      -1.92537948
H        4.86137003       6.44966267      -3.35290576
H        3.39981464       2.00349053      -5.01131313
H        4.52916537       2.47782028      -6.85377416
C        5.74498722       5.91684600      -5.80063569
C        6.42868975       6.64567702      -6.47575953
Br       7.53417891       7.82413513      -7.56737767
C       -0.88335098      -0.88335098      -0.88335098
C       -0.83732154      -2.26622280      -0.72745012
C       -1.64029574      -3.08304712      -1.53148613
C       -2.49965412      -2.53355254      -2.50056564
C       -2.53009691      -1.13557558      -2.63911352
C       -1.72945506      -0.32265447      -1.83919609
O       -1.81720698       1.02715432      -2.03786915
C       -3.33983127      -3.39803435      -3.34676525
C       -4.18046297      -4.36992854      -2.77751600
C       -4.97824642      -5.19350643      -3.57828233
C       -4.94713250      -5.05737760      -4.96523358
C       -4.11948125      -4.09772232      -5.54864549
C       -3.32273181      -3.27465569      -4.74787420
O       -4.08334738      -3.96037948      -6.90902523
H       -0.18172951      -2.72221593       0.01024843
H       -1.58088492      -4.16292121      -1.40377433
H       -3.19061015      -0.66715487      -3.36587233
H       -1.21265469       1.45456070      -1.40405935
H       -4.23099366      -4.48521696      -1.69614490
H       -5.62119263      -5.93374884      -3.10899699
H       -2.67099824      -2.53578688      -5.20783319
H       -3.46759277      -3.24799526      -7.14517177
C       -5.78054580      -5.92141537      -5.76050773
C       -6.47852945      -6.64504701      -6.42654983
Br      -7.60710997      -7.81509816      -7.50348358
C       -0.88335098       0.88335098       0.88335098
C       -2.26489324       0.71241459       0.85368663
C       -3.08172731       1.51630463       1.65679704
C       -2.53355845       2.50020855       2.50000530
C       -1.13689218       2.65378709       2.51410675
C       -0.32398016       1.85399889       1.71332657
O        1.02448693       2.06779855       1.78461020
C       -3.39810162       3.34615153       3.34037771
C       -4.35497551       2.77567799       4.19725400
C       -5.17858227       3.57617234       4.99528058
C       -5.05755789       4.96407055       4.94811523
C       -4.11293558       5.54871443       4.10419906
C       -3.28982909       4.74822074       3.30721187
O       -3.99046739       6.91000346       4.05228123
H       -2.71988790      -0.03698092       0.21079003
H       -4.16074676       1.37660260       1.61023110
H       -0.66930308       3.39242735       3.16190692
H        1.45222457       1.43212650       1.18225141
H       -4.45820967       1.69375181       4.26039404
H       -5.90697611       3.10598705       5.65097530
H       -2.56280197       5.20897274       2.64284360
H       -3.28716092       7.14707212       3.42652676
C       -5.92118631       5.75902647       5.78225612
C       -6.64447511       6.42480205       6.48084912
Br      -7.81397193       7.50130486       7.61041492
C        0.88335098      -0.88335098       0.88335098
C        2.26377501      -0.70208947       0.86512998
C        3.08061409      -1.50587898       1.66833591
C        2.53355813      -2.49996287       2.50025130
C        1.13799684      -2.66386341       2.50292577
C        0.32509279      -1.86416399       1.70204885
O       -1.02224644      -2.08835126       1.76181699
C        3.39814109      -3.34572857       3.34076121
C        4.34448154      -2.77459994       4.20882602
C        5.16810512      -3.57490686       5.00702320
C        5.05766967      -4.96326836       4.94880565
C        4.12358976      -5.54857245       4.09368686
C        3.30045882      -4.74827019       3.29653269
O        4.01154911      -6.91030172       4.03090126
H        2.71792484       0.05533897       0.23111114
H        4.15888578      -1.35794053       1.63075415
H        0.67113801      -3.41066556       3.14183378
H       -1.45023922      -1.45140245       1.16099012
H        4.43926759      -1.69244204       4.28064588
H        5.88819062      -3.10425008       5.67149776
H        2.58173390      -5.20942020       2.62346421
H        3.31461096      -7.14789160       3.39825724
C        5.92100747      -5.75801049       5.78345095
C        6.64405288      -6.42360702       6.48246639
Br       7.81315615      -7.49982033       7.61271524
