138
Properties=species:S:1:pos:R:3 pbc="F F F"
C        1.79361773       1.79361773      -1.79361773
C        1.53002057       3.16126459      -1.86900702
C        2.32484700       3.97669991      -2.68023886
C        3.38005057       3.42389358      -3.41317050
C        3.64549210       2.05512996      -3.33146490
C        2.85079251       1.24636722      -2.52357784
O        3.15127890      -0.08708412      -2.48897661
C        4.17072991       4.25498524      -4.26706163
C        4.81353651       4.93942198      -5.01531331
C        5.60360263       5.79243287      -6.01026440
C        6.19832879       6.44352347      -6.82653115
C        6.88108140       7.19932157      -7.83011781
C        6.56284664       8.54525063      -8.02854192
C        7.21033753       9.27716587      -9.02717688
C        8.17624941       8.66224055      -9.82662947
C        8.49577386       7.31665656      -9.62415862
C        7.85092209       6.58302608      -8.62689026
O        9.44021961       6.71233083     -10.40732144
H        0.70987292       3.60198861      -1.30818972
H        2.11144398       5.04181462      -2.74144918
H        4.46104153       1.61226190      -3.89730984
H        2.50837997      -0.51578524      -1.89494051
H        5.80759921       9.03045266      -7.41404325
H        6.95235761      10.32255367      -9.17644396
H        8.08990534       5.53559285      -8.46603938
H        9.53672083       5.78371715     -10.14080587
C        8.81830005       9.44391408     -10.85149896
C        9.35601746      10.09856565     -11.70982716
Br      10.22546104      11.15708188     -13.09767127
C       -1.79361773      -1.79361773      -1.79361773
C       -3.15959968      -1.87686693      -1.52382556
C       -3.97495578      -2.68819779      -2.31863219
C       -3.42373359      -3.41338119      -3.37999986
C       -2.05667412      -3.32380159      -3.65161126
C       -1.24797501      -2.51584700      -2.85691557
O        0.08383009      -2.47337277      -3.16362870
C       -4.25452089      -4.26746578      -4.17079011
C       -4.93845054      -5.01591580      -4.81390546
C       -5.79047651      -6.01116575      -5.60465764
C       -6.44050241      -6.82769922      -6.20018178
C       -7.19475882      -7.83163076      -6.88413120
C       -8.53816937      -8.03806945      -6.56040037
C       -9.26839716      -9.03710348      -7.20917964
C       -8.65430745      -9.82893528      -8.18187670
C       -7.31126759      -9.61844542      -8.50687603
C       -6.57933077      -8.62075702      -7.86075064
O       -6.70775188     -10.39414198      -9.45797802
H       -3.59904973      -1.32212503      -0.69887650
H       -5.03872274      -2.75556827      -2.10041677
H       -1.61503377      -3.88358275      -4.47199675
H        0.51277071      -1.88036865      -2.51993730
H       -9.02266708      -7.42955043      -5.79987761
H      -10.31179999      -9.19264750      -6.94690775
H       -5.53384654      -8.45371079      -8.10398024
H       -5.78090442     -10.12269051      -9.55764892
C       -9.43414020     -10.85446933      -8.82510355
C      -10.08725013     -11.71335410      -9.36380604
Br     -11.14327365     -13.10209813     -10.23484240
C       -1.79361773       1.79361773       1.79361773
C       -1.27642266       2.29635506       2.98751445
C       -2.07752669       3.09700827       3.80725080
C       -3.39201271       3.39301262       3.43208932
C       -3.90561107       2.89312795       2.23334795
C       -3.10506921       2.09508593       1.42058243
O       -3.66305948       1.62655455       0.26355736
C       -4.21928083       4.18524652       4.28824943
C       -4.93132079       4.81683028       5.02012074
C       -5.86161706       5.57547389       5.96920895
C       -6.61169272       6.12995494       6.72673575
C       -7.52215054       6.74982637       7.63854386
C       -7.07881214       7.15906767       8.89875938
C       -7.97409614       7.74013648       9.80044766
C       -9.31251513       7.91186233       9.44074196
C       -9.75326984       7.50510150       8.17821770
C       -8.86101436       6.92474311       7.27508097
O      -11.06407451       7.67089815       7.82489922
H       -0.25815268       2.06940168       3.29249689
H       -1.67234323       3.48139554       4.74096901
H       -4.92603107       3.11373725       1.93084496
H       -2.99026354       1.08289911      -0.18562741
H       -6.03919055       7.02377935       9.18912521
H       -7.62017012       8.05108620      10.78009892
H       -9.19635110       6.60152307       6.29366340
H      -11.20263230       7.33351136       6.92510019
C      -10.20957972       8.50699755      10.39713581
C      -10.96087131       9.00542330      11.19811566
Br     -12.17564628       9.81133558      12.49323233
C        1.79361773      -1.79361773       1.79361773
C        1.91597299      -1.49392620       3.15039299
C        2.72778830      -2.28864770       3.96534976
C        3.41441322      -3.37977578       3.42292564
C        3.28566255      -3.68115869       2.06526572
C        2.47737896      -2.88647299       1.25688562
O        2.39573057      -3.22324248      -0.06580166
C        4.26942317      -4.17114839       4.25220522
C        5.01879447      -4.81583710       4.93364023
C        6.01540137      -5.61006530       5.78083323
C        6.83311976      -6.20962111       6.42564253
C        7.83856017      -6.89960952       7.17235109
C        8.08475869      -6.54949943       8.50238106
C        9.08555222      -7.20478367       9.22434440
C        9.83935793      -8.21036777       8.61539373
C        9.58908966      -8.56163960       7.28585979
C        8.58953767      -7.90908018       6.56222059
O       10.32753002      -9.54500499       6.68733687
H        1.39146028      -0.64580147       3.58278951
H        2.82580179      -2.04721356       5.02169242
H        3.81526613      -4.52489490       1.63045225
H        1.80785800      -2.57573002      -0.49605278
H        7.50606990      -5.76341547       8.98260974
H        9.27223395      -6.92191443      10.25720686
H        8.39175701      -8.17269034       5.52709022
H       10.03162221      -9.65984499       5.76977665
C       10.86795874      -8.85957552       9.38617882
C       11.72941193      -9.40328701      10.03171133
Br      13.12230887     -10.28242251      11.07548281
C       -0.00445707       0.01189536      -1.78238275
H       -0.66409135       0.67374010      -2.43557963
H        0.65740317      -0.63156657      -2.45157240
C       -0.90989263      -0.90692880      -0.91072765
C        0.90977584       0.90977584      -0.90977584
C       -0.00465871       1.77757030       0.00794375
H       -0.66225468       2.44313916      -0.64384735
H        0.64322798       2.43503045       0.67728295
C       -1.78241447       0.00034974      -0.00472694
H       -2.45427497      -0.65498947       0.64260836
H       -2.43311707       0.67328779      -0.65473579
C       -0.91132561       0.90220522       0.91563759
C       -0.01476271      -0.02253852       1.78660255
H       -0.67934791      -0.69751639       2.42135241
H        0.63392994       0.61504881       2.47327442
C        0.01484550      -1.77751727      -0.01636693
H        0.67870853      -2.42144646      -0.68295456
H       -0.62264859      -2.45592969       0.64226336
C        1.78714474       0.01002794       0.00389507
H        2.44202412       0.67113390       0.66197326
H        2.45385902      -0.65136977      -0.64189061
C        0.91606151      -0.90478549       0.90901405
