93
Properties=species:S:1:pos:R:3 pbc="F F F"
C        0.00000000       0.00000000       0.00000000
C        0.88210069       0.88210069      -0.88210069
C        0.40443772       2.11408261      -1.32140490
C        1.21120755       2.92041593      -2.12847272
C        2.50275182       2.50875905      -2.50406987
C        2.95601163       1.25948199      -2.04461531
C        2.15675165       0.44674519      -1.23867996
O        4.21357625       0.84144659      -2.38811320
C        3.32764473       3.38259454      -3.35630628
C        3.58011670       3.01674962      -4.69063435
C        4.32560677       3.84108931      -5.53828745
C        4.82741581       5.04899346      -5.06050381
C        4.59753457       5.43615489      -3.74436084
C        3.86041542       4.60347988      -2.90269561
O        3.69907014       5.04500941      -1.61479608
Br       5.83117702       6.16674451      -6.20801742
H       -0.59098220       2.45566367      -1.04758048
H        0.82460234       3.87902088      -2.47321612
H        2.51671771      -0.51542346      -0.88854022
H        4.38477581      -0.03220628      -2.00004127
H        3.19096688       2.07635116      -5.07691856
H        4.50584712       3.53101171      -6.56436110
H        4.99089466       6.37318080      -3.36094520
H        3.36504878       4.30462880      -1.08027034
C       -0.88210069      -0.88210069      -0.88210069
C       -2.15196807      -1.24613513      -0.44182202
C       -2.95831562      -2.05322114      -1.24855943
C       -2.50880664      -2.50380908      -2.50296503
C       -1.22182142      -2.11931049      -2.91897703
C       -0.40881081      -1.31396740      -2.11939859
O       -0.76596498      -2.53660898      -4.14056208
C       -3.38377580      -3.35388860      -3.32888115
C       -3.06772826      -4.71270398      -3.50706843
C       -3.89650492      -5.55676976      -4.25170885
C       -5.05903589      -5.05052745      -4.82734974
C       -5.39620449      -3.70996047      -4.67188534
C       -4.55901777      -2.87260535      -3.93496778
O       -4.94877179      -1.56096883      -3.84913501
Br      -6.18302426      -6.19286263      -5.83005205
H       -2.52337882      -0.91343848       0.52455536
H       -3.94717253      -2.33872053      -0.89094628
H        0.58270014      -1.02203859      -2.45049602
H        0.13079069      -2.19453610      -4.28886539
H       -2.16323180      -5.12118524      -3.05981955
H       -3.62537402      -6.60228490      -4.37356100
H       -6.29728279      -3.30467635      -5.12306152
H       -4.20017007      -1.04429993      -3.50547792
C       -0.88210069       0.88210069       0.88210069
C       -0.58310071       1.02196083       2.23486368
C       -1.39024303       1.82840435       3.04144881
C       -2.50188359       2.50552504       2.50817211
C       -2.77756928       2.34368957       1.13885009
C       -1.97733538       1.53938653       0.32545489
O       -3.84796003       3.00089597       0.59428003
C       -3.33275010       3.34774953       3.38604591
C       -4.63124990       2.92890636       3.72734441
C       -5.43202422       3.68390155       4.58905776
C       -4.94033881       4.87124177       5.12533250
C       -3.66137187       5.31339511       4.80328331
C       -2.87239073       4.55865200       3.93554818
O       -1.63479033       5.07458550       3.64949980
Br      -6.02092590       5.88999310       6.29501994
H        0.26906614       0.50804035       2.67328773
H       -1.15195261       1.92456812       4.10031861
H       -2.19836477       1.42210844      -0.73063875
H       -3.91086089       2.79433563      -0.35258572
H       -5.02610204       2.00118184       3.31695271
H       -6.43227161       3.33562096       4.83332734
H       -3.27207900       6.24172724       5.21121441
H       -1.27201149       4.58825808       2.88967835
C        0.88210069      -0.88210069       0.88210069
C        2.24197749      -0.60423749       0.99371025
C        3.04855068      -1.41138206       1.80016346
C        2.50823332      -2.50193051       2.50541691
C        1.13181869      -2.75657363       2.37171662
C        0.31835690      -1.95618105       1.56763885
O        0.58056868      -3.80602788       3.05653948
C        3.38628998      -3.33341781       3.34683775
C        3.69812663      -4.64457664       2.94479740
C        4.55902912      -5.44718580       3.69876861
C        5.12408118      -4.94471925       4.86811265
C        4.83155935      -3.65302407       5.29346688
C        3.96444044      -2.86209602       4.54005445
O        3.70848240      -1.61112260       5.03927063
Br       6.29267136      -6.02790230       5.88536529
H        2.68587926       0.23133509       0.45771778
H        4.11283058      -1.18986424       1.87414452
H       -0.74321949      -2.16085048       1.47220348
H       -0.37066628      -3.85602725       2.86724982
H        3.26506557      -5.04799882       2.03117220
H        4.78016534      -6.45729834       3.36375625
H        5.26207641      -3.25510655       6.20783769
H        2.94663822      -1.24357044       4.55973927
