117
Properties=species:S:1:pos:R:3 pbc="F F F"
C        0.00000000       0.00000000       0.00000000
C        0.88227261       0.88227261      -0.88227261
C        0.62438321       2.25021386      -0.96583859
C        1.42521858       3.05718311      -1.77789954
C        2.48055849       2.49622709      -2.50491887
C        2.72938959       1.12122671      -2.40732816
C        1.93393374       0.30957711      -1.59780438
O        3.76154314       0.57143200      -3.11950512
C        3.27093938       3.33709151      -3.35266065
C        3.91845466       4.02619952      -4.09381869
C        4.72107909       4.88012974      -5.07705780
C        5.33017098       5.52780832      -5.88518365
C        6.03384416       6.28157718      -6.87856511
C        5.71119597       7.63181239      -7.05597896
C        6.36173352       8.38969566      -8.03390232
C        7.33663636       7.79557974      -8.83456744
C        7.67016263       6.45362735      -8.66566545
C        7.01843093       5.70172182      -7.68917205
O        7.39637470       4.39002078      -7.58581452
H       -0.19584037       2.69644721      -0.40916744
H        1.21735910       4.12289049      -1.84426278
H        2.12199720      -0.75669294      -1.52315158
H        3.79880252      -0.38366975      -2.94834254
H        4.94824512       8.10156684      -6.43874493
H        6.09893323       9.43637853      -8.16437085
H        8.42811479       5.98434536      -9.28648500
H        6.88123046       3.96538651      -6.87847569
C        8.00095947       8.57578232      -9.84627825
C        8.55733007       9.22920197     -10.69358605
Br       9.45693428      10.28572628     -12.06361110
C       -0.88227261      -0.88227261      -0.88227261
C       -1.64278302      -0.30114644      -1.89650619
C       -2.45584780      -1.10522547      -2.69922796
C       -2.50815611      -2.48690637      -2.48664197
C       -1.73529357      -3.05615764      -1.46649326
C       -0.92069116      -2.25913049      -0.66149358
O       -1.78688448      -4.40833107      -1.25726472
C       -3.36962379      -3.28825102      -3.30281673
C       -4.11485498      -3.96563156      -3.95798633
C       -5.09296289      -4.83433561      -4.75096814
C       -5.88737178      -5.52150821      -5.33428295
C       -6.85806101      -6.34061287      -5.99531257
C       -7.70881096      -5.75216980      -6.93800655
C       -8.68387743      -6.51827869      -7.58317538
C       -8.80702967      -7.87486686      -7.28488701
C       -7.96399506      -8.47388604      -6.35157432
C       -6.99317034      -7.70565921      -5.71049526
O       -6.20602217      -8.36273727      -4.80345056
H       -1.61380315       0.77195595      -2.06792708
H       -3.05143113      -0.64719532      -3.48588592
H       -0.32366163      -2.69689446       0.13210025
H       -1.20253525      -4.64288180      -0.51805826
H       -7.62249058      -4.69331064      -7.17275568
H       -9.34112707      -6.04824636      -8.31030918
H       -8.05501918      -9.52999813      -6.11392784
H       -5.56931451      -7.73474081      -4.42103735
C       -9.81659623      -8.66124317      -7.94518063
C      -10.66210823      -9.31983333      -8.49817653
Br     -12.02922961     -10.38471791      -9.39232414
C       -0.88227261       0.88227261       0.88227261
C       -0.33104363       1.99826827       1.51112376
C       -1.13431667       2.80174966       2.32423490
C       -2.48524645       2.48841925       2.50803875
C       -3.02513530       1.36642996       1.86637920
C       -2.22879660       0.56001342       1.05250521
O       -4.34708472       1.05864959       2.04674596
C       -3.28319628       3.30952160       3.36797366
C       -3.95349134       3.97050459       4.11447694
C       -4.80743592       4.77311874       5.09771197
C       -5.47766521       5.36606715       5.89943059
C       -6.27187814       6.04078745       6.88132086
C       -5.70044682       7.09381136       7.60472914
C       -6.44034486       7.75722407       8.58776256
C       -7.75372321       7.36660038       8.84645995
C       -8.33585131       6.32272647       8.13087765
C       -7.59386385       5.66389468       7.15156628
O       -8.23156191       4.64631331       6.49433478
H        0.71854560       2.24886596       1.37945393
H       -0.69908194       3.66837638       2.81705405
H       -2.64342845      -0.31206305       0.55709044
H       -4.56338772       0.25733016       1.54275743
H       -4.67471956       7.40143776       7.41239958
H       -5.98345913       8.57079023       9.14543325
H       -9.35824467       6.01282626       8.32787422
H       -7.62475714       4.26158029       5.83875524
C       -8.51236198       8.04636047       9.86429758
C       -9.14772195       8.61565954      10.71673660
Br     -10.17504528       9.53616799      12.09505839
C        0.88227261      -0.88227261       0.88227261
C        1.00536297      -0.59395038       2.24112232
C        1.81756724      -1.39491372       3.04782026
C        2.50528749      -2.48077999       2.49563697
C        2.36822415      -2.75987490       1.12984541
C        1.55831291      -1.96446155       0.31854076
O        3.04193638      -3.82193949       0.58860440
C        3.35422928      -3.27135834       3.33510392
C        4.09634895      -3.92016960       4.02195432
C        5.08073629      -4.72598331       4.87154703
C        5.88968887      -5.33901786       5.51445622
C        6.88412539      -6.04857464       6.26128642
C        7.10212076      -5.69824661       7.59861994
C        8.08247599      -6.35422293       8.34863258
C        8.84490730      -7.36228924       7.75958700
C        8.63536175      -7.72349943       6.43059424
C        7.65661019      -7.06622203       5.68649258
O        7.51225067      -7.47270377       4.38725556
H        0.47948113       0.25003848       2.68033163
H        1.91488729      -1.16338011       4.10624497
H        1.45316652      -2.17602158      -0.74073225
H        2.84664924      -3.87777404      -0.36094796
H        6.51492011      -4.90945642       8.06418037
H        8.24470945      -6.06980053       9.38517263
H        9.22627660      -8.50737019       5.96529836
H        6.80723531      -6.95070506       3.96715230
C        9.85924681      -8.03233629       8.53143693
C       10.70875615      -8.59350069       9.17786124
Br      12.08234091      -9.50085607      10.22307468
