109
Properties=species:S:1:pos:R:3 pbc="F F F"
C        0.00000000       0.00000000       0.00000000
C        0.88227261       0.88227261      -0.88227261
C        0.62438321       2.25021386      -0.96583859
C        1.42521858       3.05718311      -1.77789954
C        2.48055849       2.49622709      -2.50491887
C        2.72938959       1.12122671      -2.40732816
C        1.93393374       0.30957711      -1.59780438
O        3.76154314       0.57143200      -3.11950512
C        3.27093938       3.33709151      -3.35266065
C        3.91845466       4.02619952      -4.09381869
C        4.72107909       4.88012974      -5.07705780
C        5.33017098       5.52780832      -5.88518365
C        6.03384416       6.28157718      -6.87856511
C        5.71119597       7.63181239      -7.05597896
C        6.36173352       8.38969566      -8.03390232
C        7.33663636       7.79557974      -8.83456744
C        7.67016263       6.45362735      -8.66566545
C        7.01843093       5.70172182      -7.68917205
O        7.39637470       4.39002078      -7.58581452
Br       8.20876291       8.81983341     -10.16274622
H       -0.19584037       2.69644721      -0.40916744
H        1.21735910       4.12289049      -1.84426278
H        2.12199720      -0.75669294      -1.52315158
H        3.79880252      -0.38366975      -2.94834254
H        4.94824512       8.10156684      -6.43874493
H        6.09893323       9.43637853      -8.16437085
H        8.42811479       5.98434536      -9.28648500
H        6.88123046       3.96538651      -6.87847569
C       -0.88227261      -0.88227261      -0.88227261
C       -1.63341757      -0.30268335      -1.90433475
C       -2.44648996      -1.10670190      -2.70710936
C       -2.50815693      -2.48678069      -2.48676684
C       -1.74462504      -3.05453286      -1.45878656
C       -0.93006981      -2.25756153      -0.65368389
O       -1.80538163      -4.40512910      -1.24196953
C       -3.36953591      -3.28786126      -3.30329437
C       -4.11489452      -3.96471494      -3.95886341
C       -5.09344101      -4.83233496      -4.75249067
C       -5.88845292      -5.51827088      -5.33643915
C       -6.86006035      -6.33556121      -5.99836490
C       -7.70181665      -5.74770780      -6.94946286
C       -8.67758242      -6.51188542      -7.59586366
C       -8.81044408      -7.86595491      -7.29038455
C       -7.97641020      -8.46439412      -6.34865110
C       -7.00484968      -7.69809789      -5.70637724
O       -6.22688802      -8.35442188      -4.79090011
Br     -10.13676474      -8.89562928      -8.15894852
H       -1.59713189       0.76920567      -2.08184807
H       -3.03476620      -0.64983066      -3.49991551
H       -0.34026887      -2.69413499       0.14594801
H       -1.22674879      -4.63874179      -0.49798473
H       -7.60790618      -4.69076859      -7.18988212
H       -9.32780005      -6.04230241      -8.32958015
H       -8.07502502      -9.51854185      -6.10537828
H       -5.58874606      -7.72791932      -4.40842728
C       -0.88227261       0.88227261       0.88227261
C       -0.32899299       1.99321848       1.51822419
C       -1.13230717       2.79665802       2.33133604
C       -2.48533032       2.48832225       2.50805189
C       -3.02724079       1.37138889       1.85931478
C       -2.23087005       0.56504712       1.04539806
O       -4.35124581       1.06849387       2.03274058
C       -3.28344645       3.30916052       3.36808457
C       -3.95410665       3.96981953       4.11454669
C       -4.80882186       4.77188467       5.09756010
C       -5.47994154       5.36427519       5.89894621
C       -6.27546444       6.03819937       6.88032264
C       -5.70265462       7.08568614       7.61064656
C       -6.44391659       7.74806606       8.59334884
C       -7.76003768       7.36195944       8.84478642
C       -8.34353859       6.32363491       8.12228193
C       -7.60018365       5.66581107       7.14333008
O       -8.23939094       4.65376778       6.47905128
Br      -8.75787630       8.25290623      10.18056000
H        0.72220554       2.23988816       1.39209167
H       -0.69549931       3.65931359       2.82969947
H       -2.64708750      -0.30313507       0.54450341
H       -4.56880043       0.27025671       1.52441818
H       -4.67481593       7.38974344       7.42399753
H       -5.98596084       8.55729370       9.15642807
H       -9.36807305       6.01726975       8.31360236
H       -7.63143323       4.26923819       5.82442124
C        0.88227261      -0.88227261       0.88227261
C        0.99146788      -0.60447056       2.24449722
C        1.80362308      -1.40538796       3.05129018
C        2.50516068      -2.48069981       2.49584396
C        2.38197351      -2.74933390       1.12663705
C        1.57219709      -1.95390768       0.31521046
O        3.06920992      -3.80105658       0.58221376
C        3.35368675      -3.27120190       3.33580288
C        4.09547954      -3.91955063       4.02344269
C        5.07948560      -4.72423279       4.87454825
C        5.88817269      -5.33587174       5.51911851
C        6.88227509      -6.04334686       6.26836450
C        7.08602333      -5.70256189       7.61040209
C        8.06556379      -6.35660594       8.36316177
C        8.84145694      -7.35318154       7.77214506
C        8.64618010      -7.70484758       6.43842775
C        7.66818238      -7.04953923       5.69160319
O        7.53822075      -7.44617745       4.38781180
Br      10.17192937      -8.23015230       8.78926086
H        0.45476152       0.23130257       2.68631534
H        1.89006093      -1.18203700       4.11241445
H        1.47777104      -2.15734516      -0.74666036
H        2.88240395      -3.85046996      -0.36939860
H        6.48824931      -4.92272335       8.07758423
H        8.21664564      -6.07963775       9.40339923
H        9.24762406      -8.47973802       5.97158308
H        6.83236073      -6.92658437       3.96614756
