122
Properties=species:S:1:pos:R:3 pbc="F F F"
C        1.83654554       1.83654554      -1.83654554
H        1.14380748       2.25697926      -2.57114235
C        2.91237288       0.98182922      -2.48294108
C        4.05933800       1.13915551      -1.52675660
O        5.09025243       0.48241870      -1.59207495
C        3.82355994       2.20878168      -0.49147003
C        2.53433715       2.89552984      -0.95877512
H        1.92019705       3.10233161      -0.07215201
C        2.68102451       4.26649942      -1.68728785
H        1.71329694       4.44039746      -2.17726653
C        3.77810338       4.38031392      -2.75344573
C        4.88531582       5.12582013      -2.05467196
O        6.00531639       5.26518718      -2.52827978
C        4.48113303       5.65584853      -0.70921562
C        2.98067813       5.42165245      -0.70958058
H        2.58531411       5.26245959       0.29774502
Br       2.06937960       7.05050840      -1.33214250
H        3.21133954       1.39053197      -3.45126876
H        2.64467195      -0.07143183      -2.59369500
H        3.67086568       1.71521882       0.47416620
H        4.68605406       2.87054966      -0.42860533
H        3.43786967       4.99302741      -3.59480589
H        4.14189002       3.42369877      -3.12449347
H        4.97349093       5.05624206       0.06116527
H        4.77304615       6.70354293      -0.60337225
C       -1.83654554      -1.83654554      -1.83654554
H       -2.35807584      -1.12776001      -2.48609325
C       -2.79296066      -2.62488458      -0.95929794
C       -2.05045653      -3.91468346      -0.76011011
O       -2.40395186      -4.78523962       0.02444539
C       -0.83723301      -4.04127147      -1.64530718
C       -0.94892573      -2.84332958      -2.59638680
H        0.05629568      -2.42157888      -2.72939747
C       -1.47183501      -3.12463302      -4.03834375
H       -1.74347874      -2.14138988      -4.44609231
C       -2.69043095      -4.04634541      -4.17508666
C       -2.09992030      -5.36562928      -4.60025834
O       -2.74345848      -6.40560070      -4.64972417
C       -0.63785707      -5.27765934      -4.93068077
C       -0.39942510      -3.77787682      -4.93460924
H        0.62650306      -3.52009324      -4.65643850
Br      -0.58589885      -3.09553351      -6.77059813
H       -3.72491116      -2.84079398      -1.48743513
H       -3.01377827      -2.15494393       0.00178707
H        0.05222905      -3.95141991      -1.01272743
H       -0.83221304      -5.00960757      -2.14338844
H       -3.35056420      -3.69858458      -4.97655420
H       -3.26476541      -4.16711816      -3.25819869
H       -0.07248783      -5.76458263      -4.13149727
H       -0.42710075      -5.76933149      -5.88352909
C       -1.83654554       1.83654554       1.83654554
H       -2.38290310       2.46318442       1.12584157
C       -0.95710250       2.65329673       2.76674395
C       -0.92351708       1.79996935       4.00176368
O       -0.18929991       2.01907725       4.95636892
C       -1.90670036       0.65847909       3.95863221
C       -2.74341661       0.94055878       2.70466672
H       -2.91765630      -0.01475301       2.19177738
C       -4.15936218       1.55848562       2.91696397
H       -4.46182420       1.93779727       1.93133946
C       -4.27835877       2.70986028       3.92364397
C       -4.85590270       2.05723462       5.15267060
O       -4.94217278       2.62090764       6.23570292
C       -5.28913067       0.63881770       4.91824881
C       -5.18655164       0.51739079       3.40796874
H       -4.96748598      -0.50529505       3.08783775
Br      -6.93964635       0.90781374       2.60457041
H       -1.42825849       3.60662217       3.01825960
H        0.05385752       2.82880813       2.39198451
H       -1.33899976      -0.27099914       3.84391768
H       -2.48253406       0.62059007       4.88208492
H       -4.99505690       3.45913379       3.57151229
H       -3.33332018       3.19494124       4.16182084
H       -4.57900527      -0.02679516       5.41635761
H       -6.29294263       0.47094916       5.31606954
C        1.83654554      -1.83654554       1.83654554
H        2.80726786      -1.33260004       1.83206120
C        1.90858099      -3.23032211       1.23824008
C        0.80969178      -3.94630586       1.96925246
O        0.42046863      -5.06899866       1.67527879
C        0.25059673      -3.15174747       3.12146745
C        1.19965982      -1.95251947       3.23646283
H        0.59394628      -1.05962229       3.44111209
C        2.26747359      -1.99520039       4.37213780
H        3.00010594      -1.21916292       4.11169207
C        3.02596657      -3.31345502       4.57244144
C        2.35861615      -3.93594577       5.77124599
O        2.57498089      -5.08236265       6.14143981
C        1.38368669      -3.01544329       6.44706721
C        1.66254514      -1.69100671       5.75835932
H        0.77902540      -1.04714123       5.72386204
Br       2.96277005      -0.66696172       6.82229873
H        2.85758920      -3.71465632       1.48089475
H        1.74104726      -3.26649576       0.15939210
H       -0.75705830      -2.82267890       2.84629770
H        0.19897717      -3.76949319       4.01673869
H        4.07271246      -3.12212878       4.83086174
H        2.97992780      -3.98964144       3.72051302
H        0.37060743      -3.36594729       6.23201299
H        1.54829292      -3.00438725       7.52728116
C       -0.00445707       0.01189536      -1.78238275
H       -0.66409135       0.67374010      -2.43557963
H        0.65740317      -0.63156657      -2.45157240
C       -0.90989263      -0.90692880      -0.91072765
C        0.90977584       0.90977584      -0.90977584
C       -0.00465871       1.77757030       0.00794375
H       -0.66225468       2.44313916      -0.64384735
H        0.64322798       2.43503045       0.67728295
C       -1.78241447       0.00034974      -0.00472694
H       -2.45427497      -0.65498947       0.64260836
H       -2.43311707       0.67328779      -0.65473579
C       -0.91132561       0.90220522       0.91563759
C       -0.01476271      -0.02253852       1.78660255
H       -0.67934791      -0.69751639       2.42135241
H        0.63392994       0.61504881       2.47327442
C        0.01484550      -1.77751727      -0.01636693
H        0.67870853      -2.42144646      -0.68295456
H       -0.62264859      -2.45592969       0.64226336
C        1.78714474       0.01002794       0.00389507
H        2.44202412       0.67113390       0.66197326
H        2.45385902      -0.65136977      -0.64189061
C        0.91606151      -0.90478549       0.90901405
