138
Properties=species:S:1:pos:R:3 pbc="F F F"
C        1.83357818       1.83357818      -1.83357818
H        2.12856605       1.18817766      -2.66723619
C        3.03434859       2.32136393      -1.03907070
C        2.52309660       3.61251405      -0.46423272
O        3.08471155       4.22000342       0.43899642
C        1.25671110       4.09089286      -1.12365485
C        1.05636441       3.08313001      -2.25829333
H       -0.01401997       2.88114375      -2.38536244
C        1.55774023       3.60377543      -3.54606617
C        1.91631426       3.99568115      -4.62454678
C        2.33348289       4.45412737      -6.02318572
C        2.64725782       4.77567333      -7.13797365
C        3.02984728       5.13025542      -8.51984381
H        2.19774924       4.85713382      -9.17982859
C        4.29756933       4.38312777      -8.93849476
C        5.38095744       5.34132580      -8.52118608
O        6.56303430       5.03166702      -8.43954383
C        4.86004662       6.72145492      -8.21822357
C        3.39681405       6.61249325      -8.62404046
H        2.75530154       7.27148836      -8.03029989
Br       3.16733553       7.22677356     -10.47395473
H        3.87545808       2.55631676      -1.69868353
H        3.35481996       1.63937794      -0.24758532
H        0.44509353       4.02732627      -0.39231653
H        1.37443488       5.12118188      -1.47117594
H        4.34953236       4.25945511     -10.02460880
H        4.41867149       3.41656519      -8.44173973
H        4.95556642       6.89226664      -7.14160039
H        5.42363523       7.47605501      -8.77237035
C       -1.83357818      -1.83357818      -1.83357818
H       -1.13388648      -2.35683081      -2.49326261
C       -2.81240047      -0.96980830      -2.61257444
C       -3.99309343      -0.92296830      -1.68378163
O       -4.92174346      -0.13427823      -1.80969687
C       -3.92452699      -1.95618867      -0.59054315
C       -2.67697366      -2.76402988      -0.95678421
H       -2.14985853      -3.06063470      -0.04199299
C       -3.02217193      -4.00306507      -1.68234483
C       -3.25238050      -5.04148722      -2.24267446
C       -3.49066788      -6.38430346      -2.93582464
C       -3.63432507      -7.44600348      -3.48057626
C       -3.76959212      -8.75069279      -4.15966159
H       -3.12748720      -9.46996792      -3.63725652
C       -3.34967144      -8.64268835      -5.62683207
C       -4.64878784      -8.29270107      -6.30198042
O       -4.72199882      -7.86501981      -7.44722652
C       -5.84931014      -8.52693878      -5.42347620
C       -5.23295087      -9.19703578      -4.20336111
H       -5.79151117      -8.97779676      -3.28778186
Br      -5.32853506     -11.14839097      -4.39113780
H       -3.12942034      -1.46587075      -3.53516728
H       -2.44587629       0.03606481      -2.83197175
H       -3.79149976      -1.43661512       0.36337854
H       -4.84088366      -2.55293570      -0.57297335
H       -3.00916341      -9.60632563      -6.01810724
H       -2.59505970      -7.87265305      -5.80926365
H       -6.27444314      -7.55317657      -5.16181374
H       -6.59280293      -9.13722748      -5.94203018
C       -1.83357818       1.83357818       1.83357818
H       -2.84117767       1.42004890       1.72275333
C       -1.75578268       3.27677086       1.36222968
C       -0.61182856       3.80926545       2.17874936
O       -0.05012675       4.87202498       1.94356682
C       -0.23679619       2.90867333       3.32578930
C       -1.30849959       1.81701539       3.27227276
H       -0.86256615       0.85119287       3.53872720
C       -2.39868704       2.07427126       4.23462353
C       -3.29119894       2.21827295       5.02707029
C       -4.43765187       2.34054470       6.03259941
C       -5.35502766       2.39893206       6.80694508
C       -6.50285014       2.44151885       7.73557751
H       -6.61850427       1.44278181       8.17342557
C       -7.78157745       2.84090880       6.99670561
C       -7.77000197       4.33996610       7.13350126
O       -8.47965701       5.08513956       6.46944859
C       -6.79743221       4.82748086       8.17481205
C       -6.30925598       3.52678913       8.79730265
H       -5.28208848       3.60800809       9.16699323
Br      -7.37957756       3.10183992      10.38664635
H       -2.65615432       3.83266520       1.64163885
H       -1.55997841       3.38885258       0.29295223
H        0.75669576       2.49564502       3.12578707
H       -0.23242674       3.46987760       4.26448836
H       -8.67304108       2.45775903       7.50279617
H       -7.78792184       2.54499870       5.94405587
H       -5.98157906       5.34590989       7.66194450
H       -7.29192401       5.50255838       8.87757820
C        1.83357818      -1.83357818       1.83357818
H        2.34960975      -2.49972420       1.13464596
C        0.97091651      -2.60278693       2.82107978
C        0.93526336      -1.66752922       3.99705078
O        0.15086541      -1.78433958       4.93051356
C        1.97386997      -0.58017538       3.91721346
C        2.77312167      -0.95729524       2.66737084
H        3.07175290      -0.04689287       2.13384045
C        4.01012086      -1.68759580       3.00986518
C        5.04677503      -2.25221169       3.23755546
C        6.38715548      -2.95121952       3.47242099
C        7.44670921      -3.50083913       3.61335646
C        8.74849062      -4.18612451       3.74533137
H        9.46709467      -3.67095163       3.09666535
C        8.63050080      -5.65489975       3.33379130
C        8.28385863      -6.32130087       4.63830982
O        7.85052386      -7.46385467       4.71986662
C        8.52911482      -5.43771940       5.83289089
C        9.20236759      -4.22445862       5.20652155
H        8.99094386      -3.30478689       5.76135904
Br      11.15318324      -4.42209589       5.29278470
H        1.46377240      -3.52631434       3.14037163
H       -0.03803627      -2.81876971       2.46104978
H        1.45864716       0.37577769       3.78186686
H        2.57556343      -0.56093314       4.83029614
H        9.59023267      -6.05308572       2.99027788
H        7.85551201      -5.83722303       2.58424136
H        7.55902285      -5.16864130       6.26176930
H        9.14059647      -5.95557174       6.57589238
C       -0.00445707       0.01189536      -1.78238275
H       -0.66409135       0.67374010      -2.43557963
H        0.65740317      -0.63156657      -2.45157240
C       -0.90989263      -0.90692880      -0.91072765
C        0.90977584       0.90977584      -0.90977584
C       -0.00465871       1.77757030       0.00794375
H       -0.66225468       2.44313916      -0.64384735
H        0.64322798       2.43503045       0.67728295
C       -1.78241447       0.00034974      -0.00472694
H       -2.45427497      -0.65498947       0.64260836
H       -2.43311707       0.67328779      -0.65473579
C       -0.91132561       0.90220522       0.91563759
C       -0.01476271      -0.02253852       1.78660255
H       -0.67934791      -0.69751639       2.42135241
H        0.63392994       0.61504881       2.47327442
C        0.01484550      -1.77751727      -0.01636693
H        0.67870853      -2.42144646      -0.68295456
H       -0.62264859      -2.45592969       0.64226336
C        1.78714474       0.01002794       0.00389507
H        2.44202412       0.67113390       0.66197326
H        2.45385902      -0.65136977      -0.64189061
C        0.91606151      -0.90478549       0.90901405
