70
Properties=species:S:1:pos:R:3 pbc="F F F"
Cl       1.40290489       4.06309781      -5.01528448
C        2.05302413       3.23287333      -3.65518686
C        1.22377731       2.43993096      -2.87523639
C        1.79505959       1.79505959      -1.79505959
N        3.09948227       1.89740787      -1.46712861
C        3.87343228       2.67736136      -2.24924193
C        3.40053647       3.36417972      -3.35116523
H        0.17017193       2.33192005      -3.10569708
H        4.05472486       3.98179152      -3.95568843
C        5.26746603       2.79305703      -1.90735831
C        6.43496930       2.88995215      -1.62103077
Br       8.32272334       3.04662337      -1.15806337
Cl      -4.98830292      -4.09933732      -1.39364693
C       -3.64322030      -3.24894586      -2.04891814
C       -2.86290358      -2.45649542      -1.21954566
C       -1.79505959      -1.79505959      -1.79505959
N       -1.47932774      -1.88102294      -3.10366806
C       -2.26137268      -2.66106828      -3.87759461
C       -3.35153467      -3.36368352      -3.40066323
H       -3.08376893      -2.36137222      -0.16264790
H       -3.95642640      -3.98080034      -4.05497808
C       -1.93246328      -2.75933799      -5.27608010
C       -1.65700166      -2.84163886      -6.44731170
Br      -1.21160351      -2.97471242      -8.34109414
Cl      -2.36570506       2.46059236       5.65498975
C       -2.48004519       2.52212999       3.93890913
C       -1.66393658       1.70731863       3.16768944
C       -1.79505959       1.79505959       1.79505959
N       -2.66441212       2.62154292       1.17806371
C       -3.44054035       3.39787655       1.96161867
C       -3.38737742       3.38608141       3.34242259
H       -0.95257218       1.02967776       3.62553912
H       -4.02832947       4.02572592       3.93814943
C       -4.37190080       4.28364937       1.31233120
C       -5.15191518       5.02548410       0.76855294
Br      -6.41313246       6.22496812      -0.11069051
Cl       5.62955810      -2.13567288       2.71605619
C        3.92762965      -2.37802132       2.63543333
C        3.15606273      -1.55877364       1.82410829
C        1.79505959      -1.79505959       1.79505959
N        1.18955507      -2.76835874       2.50610494
C        1.97305326      -3.54396690       3.28301541
C        3.34277010      -3.39052135       3.38258996
H        3.60487282      -0.76564125       1.23727499
H        3.93884682      -4.03463594       4.01872205
C        1.33598611      -4.58586884       4.04602642
C        0.80244237      -5.45846172       4.68504813
Br      -0.06025273      -6.86937060       5.71829220
C       -0.00445707       0.01189536      -1.78238275
H       -0.66409135       0.67374010      -2.43557963
H        0.65740317      -0.63156657      -2.45157240
C       -0.90989263      -0.90692880      -0.91072765
C        0.90977584       0.90977584      -0.90977584
C       -0.00465871       1.77757030       0.00794375
H       -0.66225468       2.44313916      -0.64384735
H        0.64322798       2.43503045       0.67728295
C       -1.78241447       0.00034974      -0.00472694
H       -2.45427497      -0.65498947       0.64260836
H       -2.43311707       0.67328779      -0.65473579
C       -0.91132561       0.90220522       0.91563759
C       -0.01476271      -0.02253852       1.78660255
H       -0.67934791      -0.69751639       2.42135241
H        0.63392994       0.61504881       2.47327442
C        0.01484550      -1.77751727      -0.01636693
H        0.67870853      -2.42144646      -0.68295456
H       -0.62264859      -2.45592969       0.64226336
C        1.78714474       0.01002794       0.00389507
H        2.44202412       0.67113390       0.66197326
H        2.45385902      -0.65136977      -0.64189061
C        0.91606151      -0.90478549       0.90901405
