49
Properties=species:S:1:pos:R:3 pbc="F F F"
C        0.00000000       0.00000000       0.00000000
Cl       0.49300087       3.15319379      -4.10538045
C        1.14312011       2.32296930      -2.74528283
C        0.31387329       1.53002693      -1.96533236
C        0.88515557       0.88515557      -0.88515557
N        2.18957825       0.98750384      -0.55722459
C        2.96352826       1.76745734      -1.33933790
C        2.49063244       2.45427570      -2.44126120
H       -0.73973209       1.42201603      -2.19579305
H        3.14482084       3.07188750      -3.04578440
C        4.35756201       1.88315300      -0.99745428
C        5.52506528       1.98004813      -0.71112675
Br       7.41281932       2.13671934      -0.24815934
Cl      -4.29424330      -2.87381489      -0.58351691
C       -2.82904758      -2.19905873      -1.18326592
C       -2.05167626      -1.40230111      -0.35525521
C       -0.88515557      -0.88515557      -0.88515557
N       -0.47188806      -1.11373949      -2.14867913
C       -1.25442120      -1.89307196      -2.92283034
C       -2.43868061      -2.45809309      -2.48939565
H       -2.34926650      -1.19498757       0.66617708
H       -3.04060492      -3.07954935      -3.14233847
C       -0.82178798      -2.14301066      -4.27337066
C       -0.45945765      -2.35233433      -5.40444817
Br       0.12639983      -2.69079299      -7.23330485
Cl      -0.64269035       2.73022838       4.37865638
C       -1.20951035       2.13537567       2.86648622
C       -0.38230605       1.33666127       2.09026527
C       -0.88515557       0.88515557       0.88515557
N       -2.12193613       1.17863237       0.43373819
C       -2.89622527       1.95763014       1.21646809
C       -2.48858652       2.46005646       2.43752636
H        0.61808980       1.07830202       2.41786477
H       -3.14071718       3.08348348       3.03829209
C       -4.21832525       2.27658035       0.74326369
C       -5.32558399       2.54370115       0.34695501
Br      -7.11592771       2.97561290      -0.29384261
Cl       4.47034182      -2.55511859       0.72611469
C        2.90715078      -2.05771053       1.24651093
C        2.13218245      -1.25660375       0.42044639
C        0.88515557      -0.88515557       0.88515557
N        0.39231259      -1.25775100       2.08424308
C        1.17524420      -2.03636353       2.85871577
C        2.43627378      -2.46244876       2.48744680
H        2.49236945      -0.93600572      -0.55029819
H        3.03577715      -3.08828674       3.13842885
C        0.65798682      -2.43945043       4.14073205
C        0.22478376      -2.77703570       5.21442069
Br      -0.47566895      -3.32288254       6.95048441
