62
Properties=species:S:1:pos:R:3 pbc="F F F"
Cl       1.40290489       4.06309781      -5.01528448
C        2.05302413       3.23287333      -3.65518686
C        1.22377731       2.43993096      -2.87523639
C        1.79505959       1.79505959      -1.79505959
N        3.09948227       1.89740787      -1.46712861
C        3.87343228       2.67736136      -2.24924193
Br       5.70878770       2.82968384      -1.79912517
C        3.40053647       3.36417972      -3.35116523
H        0.17017193       2.33192005      -3.10569708
H        4.05472486       3.98179152      -3.95568843
Cl      -5.55376617      -3.03184236      -1.89567865
C       -3.89401451      -2.77549042      -2.27157938
C       -3.12141391      -1.96847220      -1.44905855
C       -1.79505959      -1.79505959      -1.79505959
N       -1.22380588      -2.36339936      -2.87681351
C       -2.00713046      -3.14103315      -3.65187196
Br      -1.21633661      -3.94579211      -5.17546799
C       -3.34380618      -3.37827315      -3.39380208
H       -3.54328141      -1.49389486      -0.57061279
H       -3.94092417      -4.01006680      -4.04121384
Cl      -2.02530383       2.85389169       5.60209166
C       -2.32907044       2.69656615       3.91544772
C       -1.50831665       1.88712213       3.14350588
C       -1.79505959       1.79505959       1.79505959
N       -2.81823219       2.44382034       1.20196622
C       -3.59359079       3.22104209       1.98540269
Br      -5.03516517       4.13840113       1.16403040
C       -3.39202980       3.38070615       3.34314546
H       -0.67595209       1.34928409       3.58255289
H       -4.03766176       4.01494313       3.93959992
Cl       5.29337774      -3.63148406       1.55642538
C        3.77852707      -3.04144354       2.12111370
C        3.00237337      -2.24260841       1.29396288
C        1.79505959      -1.79505959       1.79505959
N        1.34147063      -2.09243493       3.03011319
C        2.12420565      -2.87142351       3.80440641
Br       1.49815543      -3.29680294       5.54263833
C        3.34736508      -3.37007773       3.39843861
H        3.33168184      -1.98118114       0.29492608
H        3.94806267      -3.99362705       4.05051509
C       -0.00445707       0.01189536      -1.78238275
H       -0.66409135       0.67374010      -2.43557963
H        0.65740317      -0.63156657      -2.45157240
C       -0.90989263      -0.90692880      -0.91072765
C        0.90977584       0.90977584      -0.90977584
C       -0.00465871       1.77757030       0.00794375
H       -0.66225468       2.44313916      -0.64384735
H        0.64322798       2.43503045       0.67728295
C       -1.78241447       0.00034974      -0.00472694
H       -2.45427497      -0.65498947       0.64260836
H       -2.43311707       0.67328779      -0.65473579
C       -0.91132561       0.90220522       0.91563759
C       -0.01476271      -0.02253852       1.78660255
H       -0.67934791      -0.69751639       2.42135241
H        0.63392994       0.61504881       2.47327442
C        0.01484550      -1.77751727      -0.01636693
H        0.67870853      -2.42144646      -0.68295456
H       -0.62264859      -2.45592969       0.64226336
C        1.78714474       0.01002794       0.00389507
H        2.44202412       0.67113390       0.66197326
H        2.45385902      -0.65136977      -0.64189061
C        0.91606151      -0.90478549       0.90901405
