162
Properties=species:S:1:pos:R:3 pbc="F F F"
C        1.83060707       1.83060707      -1.83060707
H        2.65852630       2.14513692      -1.18788318
C        1.04667399       3.05405852      -2.31126758
C        0.10309482       2.73533177      -3.47700998
C        0.79771033       2.01466811      -4.64490694
H        0.02776540       1.40438635      -5.13726871
C        1.88763903       1.06911182      -4.20885360
C        2.33041562       0.96686818      -2.94564473
C        1.31966350       2.92380717      -5.63796691
C        1.74986064       3.67313114      -6.45646222
C        2.24434207       4.53441377      -7.39725250
C        2.67453921       5.28373774      -8.21574781
C        3.19649238       6.19287679      -9.20880778
H        4.15705143       6.56957101      -8.83069329
C        2.30075361       7.42300735      -9.42561404
C        1.25562781       7.22845777     -10.53194399
C        1.86711025       6.73919428     -11.84434219
H        1.07885356       6.37477545     -12.51308687
C        2.92150711       5.69456028     -11.66094522
C        3.49595667       5.43303250     -10.47538962
H        0.47327079       3.49924414      -1.48907602
H        1.75889446       3.81826570      -2.64402606
H       -0.38275767       3.65890482      -3.81669976
H       -0.70430251       2.09183177      -3.10301670
H        2.30887323       0.41681072      -4.97096295
H        3.10430021       0.24022036      -2.70816957
H        1.79814366       7.71486389      -8.49591410
H        2.93813972       8.27511363      -9.69972600
H        0.70226070       8.16259399     -10.67968835
H        0.52485336       6.48584796     -10.18570671
H        3.21217375       5.11467509     -12.53383023
H        4.24699389       4.64719255     -10.41348914
C        2.48292426       7.83466624     -12.54741706
C        2.99866849       8.75212401     -13.13624227
Br       3.83258329      10.23557563     -14.08832283
C       -1.83060707      -1.83060707      -1.83060707
H       -1.47566875      -1.66368836      -2.85218928
C       -3.29614447      -1.40641669      -1.70943894
C       -3.96137724      -1.92501348      -0.42904585
C       -3.79284980      -3.44011023      -0.22432535
H       -3.81705705      -3.61302378       0.86066038
C       -2.47276573      -3.97348602      -0.71935270
C       -1.58315783      -3.24622964      -1.41354106
C       -4.86900004      -4.21024408      -0.80219346
C       -5.75597921      -4.84499853      -1.27847625
C       -6.77548284      -5.57459831      -1.82592719
C       -7.66246200      -6.20935277      -2.30220999
C       -8.73861225      -6.97948662      -2.88007809
H       -8.53074086      -7.07137399      -3.95520086
C      -10.10506533      -6.28632480      -2.75798487
C      -10.86870378      -6.66507821      -1.48224759
C      -10.98512473      -8.17661519      -1.28890679
H      -11.30202644      -8.40080922      -0.26388022
C       -9.73212072      -8.92137166      -1.62352022
C       -8.71660222      -8.37538171      -2.31239488
H       -3.39258822      -0.31477877      -1.75422396
H       -3.84831884      -1.80355380      -2.56931357
H       -5.02190153      -1.64267223      -0.42827314
H       -3.51248797      -1.40681010       0.42875212
H       -2.22967956      -5.00281865      -0.46414869
H       -0.64056040      -3.69921044      -1.71291930
H      -10.00149779      -5.19610980      -2.81131406
H      -10.71904510      -6.56985197      -3.62408228
H      -11.85726162      -6.19258229      -1.49469913
H      -10.33226120      -6.24067081      -0.62347602
H       -9.64602185      -9.94581083      -1.26884639
H       -7.82763684      -8.97317328      -2.50686545
C      -12.02462894      -8.70926042      -2.13111820
C      -12.89521371      -9.15535080      -2.83647026
Br     -14.30287565      -9.87664122      -3.97696488
C       -1.83060707       1.83060707       1.83060707
H       -2.71815548       2.04567447       1.22771644
C       -1.10376471       3.13254206       2.17569333
C       -0.06694465       2.95697430       3.29151763
C       -0.63299655       2.27542850       4.54886034
H        0.20757593       1.75178288       5.02521349
C       -1.68080284       1.23342643       4.25137517
C       -2.19624734       1.01557643       3.03110476
C       -1.15126120       3.21542762       5.51474875
C       -1.57841807       3.99018724       6.31084869
C       -2.06940485       4.88070556       7.22589794
C       -2.49656171       5.65546518       8.02199787
C       -3.01482637       6.59546430       8.98788629
H       -4.02159855       6.88214564       8.65357153
C       -2.19421590       7.89302338       9.06213572
C       -1.06874351       7.84353329      10.10375277
C       -1.55869980       7.40772569      11.48422122
H       -0.70549946       7.14222806      12.11898836
C       -2.54792976       6.28687497      11.44220787
C       -3.17840768       5.90731126      10.31865986
H       -0.61694766       3.55592949       1.28871380
H       -1.84413556       3.87025583       2.50679482
H        0.37478868       3.93133717       3.53629842
H        0.75715371       2.34272958       2.90497008
H       -2.00569008       0.60954327       5.08141356
H       -2.93173115       0.22568963       2.89526937
H       -1.77421924       8.15175096       8.08295146
H       -2.86996647       8.71902453       9.32398835
H       -0.57294991       8.81949726      10.15209586
H       -0.31226886       7.12758750       9.75655168
H       -2.74068039       5.75119618      12.36880249
H       -3.87569024       5.07212701      10.35985832
C       -2.20206101       8.50707884      12.15586771
C       -2.74087602       9.42778710      12.71837165
Br      -3.61209432      10.91649449      13.62789295
C        1.83060707      -1.83060707       1.83060707
H        1.44131832      -1.70469548       2.84553260
C        3.28570198      -1.36060243       1.76569568
C        4.00304966      -1.82113468       0.49125223
C        3.88592903      -3.33368533       0.23767102
H        3.94679475      -3.47329459      -0.85066889
C        2.56856983      -3.91973833       0.67729629
C        1.63782455      -3.23971082       1.36539317
C        4.96739662      -4.08918200       0.82485895
C        5.85875852      -4.71187214       1.30882334
C        6.88329970      -5.42760524       1.86510340
C        7.77466160      -6.05029538       2.34906778
C        8.85612918      -6.80579206       2.93625571
H        8.61996539      -6.93579212       4.00155822
C       10.20420807      -6.06989954       2.87526739
C       11.01555808      -6.38799152       1.61247996
C       11.18270120      -7.88905101       1.37889450
H       11.53579949      -8.07318969       0.35772670
C        9.94334436      -8.67955509       1.65411316
C        8.89237375      -8.18413392       2.32787112
H        3.34811138      -0.26845226       1.84502731
H        3.82430376      -1.76707738       2.62980508
H        5.05422988      -1.50821831       0.53039871
H        3.56396191      -1.29076145      -0.36417740
H        2.36389253      -4.94760240       0.38515198
H        0.70090090      -3.72862487       1.62316438
H       10.06657449      -4.98523488       2.95711228
H       10.80098283      -6.36125460       3.75074193
H       11.98876301      -5.88757121       1.66820882
H       10.49182677      -5.95384615       0.75073512
H        9.89826011      -9.69499600       1.26742296
H        8.01641321      -8.81303769       2.47822467
C       12.21277504      -8.41623600       2.23599653
C       13.07546188      -8.85775343       2.95381947
Br      14.47035353      -9.57164977       4.11447846
C       -0.00445707       0.01189536      -1.78238275
H       -0.66409135       0.67374010      -2.43557963
H        0.65740317      -0.63156657      -2.45157240
C       -0.90989263      -0.90692880      -0.91072765
C        0.90977584       0.90977584      -0.90977584
C       -0.00465871       1.77757030       0.00794375
H       -0.66225468       2.44313916      -0.64384735
H        0.64322798       2.43503045       0.67728295
C       -1.78241447       0.00034974      -0.00472694
H       -2.45427497      -0.65498947       0.64260836
H       -2.43311707       0.67328779      -0.65473579
C       -0.91132561       0.90220522       0.91563759
C       -0.01476271      -0.02253852       1.78660255
H       -0.67934791      -0.69751639       2.42135241
H        0.63392994       0.61504881       2.47327442
C        0.01484550      -1.77751727      -0.01636693
H        0.67870853      -2.42144646      -0.68295456
H       -0.62264859      -2.45592969       0.64226336
C        1.78714474       0.01002794       0.00389507
H        2.44202412       0.67113390       0.66197326
H        2.45385902      -0.65136977      -0.64189061
C        0.91606151      -0.90478549       0.90901405
