154
Properties=species:S:1:pos:R:3 pbc="F F F"
C        1.83060707       1.83060707      -1.83060707
H        2.65852630       2.14513692      -1.18788318
C        1.04667399       3.05405852      -2.31126758
C        0.10309482       2.73533177      -3.47700998
C        0.79771033       2.01466811      -4.64490694
H        0.02776540       1.40438635      -5.13726871
C        1.88763903       1.06911182      -4.20885360
C        2.33041562       0.96686818      -2.94564473
C        1.31966350       2.92380717      -5.63796691
C        1.74986064       3.67313114      -6.45646222
C        2.24434207       4.53441377      -7.39725250
C        2.67453921       5.28373774      -8.21574781
C        3.19649238       6.19287679      -9.20880778
H        4.15705143       6.56957101      -8.83069329
C        2.30075361       7.42300735      -9.42561404
C        1.25562781       7.22845777     -10.53194399
C        1.86711025       6.73919428     -11.84434219
H        1.07885356       6.37477545     -12.51308687
C        2.92150711       5.69456028     -11.66094522
C        3.49595667       5.43303250     -10.47538962
Br       2.70434683       8.22855501     -12.80021522
H        0.47327079       3.49924414      -1.48907602
H        1.75889446       3.81826570      -2.64402606
H       -0.38275767       3.65890482      -3.81669976
H       -0.70430251       2.09183177      -3.10301670
H        2.30887323       0.41681072      -4.97096295
H        3.10430021       0.24022036      -2.70816957
H        1.79814366       7.71486389      -8.49591410
H        2.93813972       8.27511363      -9.69972600
H        0.70226070       8.16259399     -10.67968835
H        0.52485336       6.48584796     -10.18570671
H        3.21217375       5.11467509     -12.53383023
H        4.24699389       4.64719255     -10.41348914
C       -1.83060707      -1.83060707      -1.83060707
H       -1.41689976      -1.73544467      -2.83920197
C       -3.27607607      -1.32809374      -1.80783028
C       -4.03062731      -1.74495491      -0.53985436
C       -3.95227326      -3.25373405      -0.25127807
H       -4.03959351      -3.36803897       0.83821204
C       -2.63896495      -3.87751633      -0.64912316
C       -1.67890541      -3.23296293      -1.33106019
C       -5.03720747      -3.99851747      -0.84571263
C       -5.93142668      -4.61237749      -1.33564983
C       -6.95925209      -5.31796128      -1.89879497
C       -7.85347129      -5.93182129      -2.38873218
C       -8.93840550      -6.67660472      -2.98316673
H       -8.68229352      -6.83504626      -4.03997594
C      -10.27097876      -5.91071786      -2.96767838
C      -11.11610532      -6.18344014      -1.71648411
C      -11.32119767      -7.67505773      -1.45439131
H      -11.70014615      -7.82906100      -0.43750873
C      -10.09388692      -8.49790152      -1.68522416
C       -9.01802628      -8.04013829      -2.34621422
Br     -12.71167249      -8.38695084      -2.63449373
H       -3.31273663      -0.23686201      -1.91199232
H       -3.80477008      -1.74178801      -2.67462813
H       -5.07358796      -1.41043292      -0.60882602
H       -3.59848941      -1.20547094       0.31341439
H       -2.46326869      -4.90287403      -0.33050418
H       -0.74762916      -3.74746946      -1.55759153
H      -10.10780152      -4.83132695      -3.06979318
H      -10.85504263      -6.20834510      -3.84959161
H      -12.07664827      -5.66354505      -1.80434971
H      -10.60161549      -5.74182061      -0.85297193
H      -10.07946904      -9.50532983      -1.27588019
H       -8.15307309      -8.69089503      -2.46370745
C       -1.83060707       1.83060707       1.83060707
H       -2.78257473       1.91186934       1.29710233
C       -1.20175258       3.21635566       1.99389186
C       -0.06161615       3.23492722       3.01889321
C       -0.45212789       2.62797756       4.37717993
H        0.47126153       2.22478842       4.81589356
C       -1.41958135       1.47711974       4.26890335
C       -2.01470281       1.10304408       3.12518164
C       -0.97157235       3.60639594       5.30346928
C       -1.39970149       4.41282172       6.06693079
C       -1.89180557       5.33973707       6.94446570
C       -2.31993471       6.14616285       7.70792721
C       -2.83937917       7.12458122       8.63421656
H       -3.89337438       7.29178993       8.37215141
C       -2.14022138       8.48869675       8.52045687
C       -0.93025580       8.63296922       9.45280455
C       -1.25772553       8.28777865      10.90514253
H       -0.33239844       8.15653674      11.47778070
C       -2.13790064       7.08756793      11.05154404
C       -2.82376981       6.55229272      10.02831627
Br      -2.18703611       9.78102487      11.76505608
H       -0.83411037       3.59505092       1.03242967
H       -1.97681230       3.91586409       2.32850982
H        0.30645445       4.26202972       3.13727163
H        0.78023268       2.65986398       2.61091466
H       -1.61272930       0.90804492       5.17587268
H       -2.68209320       0.24403475       3.12656220
H       -1.83135387       8.68973945       7.48782834
H       -2.86533787       9.27483120       8.77281028
H       -0.52547781       9.64792705       9.37113817
H       -0.14262922       7.95492475       9.09885406
H       -2.19997009       6.62628686      12.03442212
H       -3.43392271       5.66814644      10.20560642
C        1.83060707      -1.83060707       1.83060707
H        1.43946193      -1.70698432       2.84510014
C        3.28503745      -1.35812920       1.76883344
C        4.00520869      -1.81541455       0.49481333
C        3.89096735      -3.32773838       0.23857966
H        3.95383216      -3.46547367      -0.84988538
C        2.57385155      -3.91665105       0.67510184
C        1.64087986      -3.23926237       1.36278630
C        4.97270805      -4.08243000       0.82629953
C        5.86429505      -4.70445660       1.31070235
C        6.88909498      -5.41942703       1.86748633
C        7.78068198      -6.04145363       2.35188915
C        8.86242268      -6.79614526       2.93960902
H        8.62473734      -6.92826636       4.00431202
C       10.20939741      -6.05796080       2.88201679
C       11.02331951      -6.37267226       1.62003780
C       11.19328987      -7.87307482       1.38428202
H       11.54834974      -8.05497324       0.36339290
C        9.95477721      -8.66604300       1.65619239
C        8.90190486      -8.17343250       2.32904144
Br      12.59300591      -8.58943324       2.55067791
H        3.34553682      -0.26600969       1.85004445
H        3.82289393      -1.76513523       2.63315706
H        5.05581219      -1.50085169       0.53618302
H        3.56664983      -1.28436272      -0.36046660
H        2.37132627      -4.94436924       0.38095139
H        0.70433626      -3.73012056       1.61823332
H       10.06986244      -4.97365652       2.96540269
H       10.80522051      -6.34977109       3.75798775
H       11.99561521      -5.87075993       1.67816790
H       10.50028449      -5.93797552       0.75814802
H        9.91197821      -9.68092412       1.26777674
H        8.02672731      -8.80400566       2.47694260
C       -0.00445707       0.01189536      -1.78238275
H       -0.66409135       0.67374010      -2.43557963
H        0.65740317      -0.63156657      -2.45157240
C       -0.90989263      -0.90692880      -0.91072765
C        0.90977584       0.90977584      -0.90977584
C       -0.00465871       1.77757030       0.00794375
H       -0.66225468       2.44313916      -0.64384735
H        0.64322798       2.43503045       0.67728295
C       -1.78241447       0.00034974      -0.00472694
H       -2.45427497      -0.65498947       0.64260836
H       -2.43311707       0.67328779      -0.65473579
C       -0.91132561       0.90220522       0.91563759
C       -0.01476271      -0.02253852       1.78660255
H       -0.67934791      -0.69751639       2.42135241
H        0.63392994       0.61504881       2.47327442
C        0.01484550      -1.77751727      -0.01636693
H        0.67870853      -2.42144646      -0.68295456
H       -0.62264859      -2.45592969       0.64226336
C        1.78714474       0.01002794       0.00389507
H        2.44202412       0.67113390       0.66197326
H        2.45385902      -0.65136977      -0.64189061
C        0.91606151      -0.90478549       0.90901405
