130
Properties=species:S:1:pos:R:3 pbc="F F F"
C        1.82588201       1.82588201      -1.82588201
C        2.49823486       0.97526339      -2.89219474
C        3.36403233       1.80834195      -3.83412635
Br       4.95548669       2.45835728      -2.89961728
N        3.84653643       1.04436767      -4.94836502
C        3.18498499       0.98596786      -6.13056518
O        2.07140998       1.44583599      -6.32444470
O        3.98519652       0.39853502      -7.04599815
C        3.62939010       0.39810865      -8.45322107
C        3.48990674       1.83145881      -8.98210985
C        4.82148997      -0.26709656      -9.15734031
C        2.37256587      -0.43543272      -8.71849169
H        2.53794636       2.30280559      -1.14836917
H        1.16980112       2.58562370      -2.25951699
H        1.72360785       0.46206147      -3.47805892
H        3.09522283       0.18063240      -2.42462224
H        2.83032525       2.69515916      -4.19297312
H        4.79440835       0.69554937      -4.94020034
H        2.60832905       2.33315891      -8.57319463
H        3.39897442       1.84772936     -10.07338223
H        4.35718005       2.43618125      -8.69486807
H        4.96382896      -1.29376467      -8.79929114
H        5.75312882       0.26834936      -8.93617209
H        4.68872051      -0.29578892     -10.24398881
H        2.46952359      -1.43615969      -8.28230133
H        2.18760172      -0.54186772      -9.79313875
H        1.48050625       0.01546877      -8.27427201
C       -1.82588201      -1.82588201      -1.82588201
C       -1.92260333      -1.22400283      -3.21908683
C       -2.76008575      -2.08387684      -4.16253804
Br      -4.64841584      -2.00971967      -3.65532575
N       -2.69856882      -1.62153146      -5.51916885
C       -1.79368618      -2.09855285      -6.40927900
O       -0.87075692      -2.84492763      -6.12600611
O       -2.12685748      -1.66049370      -7.64237852
C       -1.46820038      -2.19004916      -8.82247027
C       -1.66978696      -3.70736558      -8.92632285
C       -2.18653820      -1.52119631     -10.00399920
C        0.01316637      -1.80459097      -8.86420024
H       -2.79089872      -1.88143029      -1.31679211
H       -1.36179708      -2.81592519      -1.83721954
H       -0.91021105      -1.12081838      -3.63269881
H       -2.32933936      -0.20507631      -3.16606179
H       -2.46633176      -3.13811256      -4.11401322
H       -3.46070468      -1.07509988      -5.89435350
H       -1.11531419      -4.24640708      -8.15296131
H       -1.33421886      -4.08967847      -9.89618869
H       -2.72592471      -3.96745680      -8.79484786
H       -2.07623069      -0.43097244      -9.96215230
H       -3.26427424      -1.72342072      -9.96995531
H       -1.79937175      -1.87059714     -10.96695151
H        0.13852506      -0.72412310      -8.73006719
H        0.47009890      -2.09106812      -9.81790352
H        0.58505140      -2.28824379      -8.06705464
C       -1.82588201       1.82588201       1.82588201
C       -2.04263310       3.17156289       1.15149699
C       -2.95303947       4.08614100       1.96732016
Br      -2.03660393       4.68943235       3.58742497
N       -3.31128418       5.27657366       1.25141128
C       -4.43768438       5.36242873       0.50140492
O       -5.17298571       4.42260504       0.24609991
O       -4.62685369       6.65254361       0.15033239
C       -5.86846748       7.08025245      -0.46800012
C       -7.06382538       6.79063661       0.44901339
C       -5.72648052       8.60241369      -0.61716050
C       -6.04982139       6.46365384      -1.85785038
H       -1.30169775       1.90641825       2.78100512
H       -2.76372032       1.28214968       1.96907181
H       -2.49420251       3.00554185       0.16398389
H       -1.07819648       3.66143250       0.96084849
H       -3.85714723       3.56334131       2.29796900
H       -2.83310591       6.14284154       1.45421061
H       -7.26364574       5.71862435       0.53241249
H       -7.97756920       7.26585668       0.07666013
H       -6.86990516       7.15410278       1.46422143
H       -4.87378907       8.85450225      -1.25893589
H       -5.53053005       9.07266631       0.35445391
H       -6.62671600       9.05563908      -1.04543468
H       -5.16158162       6.63157178      -2.47748816
H       -6.91721633       6.89301010      -2.37135369
H       -6.19876199       5.38110846      -1.80962342
C        1.82588201      -1.82588201       1.82588201
C        2.30124383      -3.03260197       1.03184719
C        3.22345903      -3.93432130       1.84872029
Br       2.21097674      -4.85579290       3.24669162
N        3.82194411      -4.96589344       1.05143158
C        5.03071017      -4.81500698       0.45580088
O        5.65725249      -3.76860129       0.41583689
O        5.43298919      -6.01407014      -0.01732963
C        6.78566073      -6.20355910      -0.50850002
C        7.81329546      -5.90057335       0.58960658
C        6.86957120      -7.69755090      -0.85538838
C        7.04590204      -5.38752681      -1.77780401
H        1.20760468      -2.09658287       2.68493357
H        2.65783908      -1.19890376       2.15819897
H        2.84038368      -2.68206631       0.14127826
H        1.44148147      -3.60334215       0.65565385
H        4.00278120      -3.35729397       2.35838236
H        3.44461755      -5.90227660       1.08326392
H        7.85496543      -4.83360456       0.82611259
H        8.82063717      -6.20904046       0.29040839
H        7.55100185      -6.41844116       1.51878636
H        6.14120524      -7.96010498      -1.63195479
H        6.62490408      -8.31480597       0.01794022
H        7.86729924      -7.97842653      -1.20880538
H        6.26855442      -5.57450591      -2.52739510
H        8.01823107      -5.63730213      -2.21666046
H        7.04028095      -4.31148963      -1.58152355
C       -0.00445707       0.01189536      -1.78238275
H       -0.66409135       0.67374010      -2.43557963
H        0.65740317      -0.63156657      -2.45157240
C       -0.90989263      -0.90692880      -0.91072765
C        0.90977584       0.90977584      -0.90977584
C       -0.00465871       1.77757030       0.00794375
H       -0.66225468       2.44313916      -0.64384735
H        0.64322798       2.43503045       0.67728295
C       -1.78241447       0.00034974      -0.00472694
H       -2.45427497      -0.65498947       0.64260836
H       -2.43311707       0.67328779      -0.65473579
C       -0.91132561       0.90220522       0.91563759
C       -0.01476271      -0.02253852       1.78660255
H       -0.67934791      -0.69751639       2.42135241
H        0.63392994       0.61504881       2.47327442
C        0.01484550      -1.77751727      -0.01636693
H        0.67870853      -2.42144646      -0.68295456
H       -0.62264859      -2.45592969       0.64226336
C        1.78714474       0.01002794       0.00389507
H        2.44202412       0.67113390       0.66197326
H        2.45385902      -0.65136977      -0.64189061
C        0.91606151      -0.90478549       0.90901405
