117
Properties=species:S:1:pos:R:3 pbc="F F F"
C        0.00000000       0.00000000       0.00000000
C        0.91597798       0.91597798      -0.91597798
C        1.58833083       0.06535937      -1.98229071
C        2.45412830       0.89843793      -2.92422233
N        2.93663241       0.13446365      -4.03846100
C        2.27508097       0.07606383      -5.22066116
O        1.16150596       0.53593196      -5.41454067
O        3.07529250      -0.51136900      -6.13609413
C        2.71948607      -0.51179538      -7.54331704
C        2.58000271       0.92155478      -8.07220582
C        3.91158594      -1.17700059      -8.24743628
C        1.46266184      -1.34533674      -7.80858767
H        1.62804233       1.39290157      -0.23846514
H        0.25989710       1.67571967      -1.34961296
H        0.81370383      -0.44784255      -2.56815489
H        2.18531880      -0.72927163      -1.51471822
H        1.92042122       1.78525514      -3.28306909
H        3.88450433      -0.21435466      -4.03029632
H        1.69842503       1.42325488      -7.66329060
H        2.48907040       0.93782534      -9.16347821
H        3.44727603       1.52627722      -7.78496405
H        4.05392493      -2.20366870      -7.88938711
H        4.84322480      -0.64155467      -8.02626807
H        3.77881649      -1.20569294      -9.33408478
H        1.55961957      -2.34606371      -7.37239730
H        1.27769769      -1.45177174      -8.88323472
H        0.57060222      -0.89443526      -7.36436799
C        3.62535048       1.37681317      -2.23647547
C        4.60624905       1.77745243      -1.66048747
Br       6.19227908       2.42525224      -0.72916360
C       -0.91597798      -0.91597798      -0.91597798
C       -1.76439264      -0.04359448      -1.82799379
C       -2.64067109      -0.87011524      -2.76600222
N       -3.29788990      -0.06049126      -3.75117590
C       -2.76456463       0.16926486      -4.97650619
O       -1.63880452      -0.15879027      -5.31438381
O       -3.70106710       0.75459315      -5.75354368
C       -3.48779531       0.91688363      -7.18009605
C       -3.27292044      -0.44217525      -7.85866763
C       -4.79874516       1.52147519      -7.70475167
C       -2.34354505       1.89121584      -7.47358356
H       -1.51165354      -1.52007477      -0.22768074
H       -0.24034412      -1.56491968      -1.47996594
H       -1.10090973       0.59439922      -2.42750567
H       -2.38124539       0.64271803      -1.23223804
H       -2.06747128      -1.66383441      -3.25743977
H       -4.26782572       0.19062889      -3.62324917
H       -2.31363806      -0.88890159      -7.58243086
H       -3.28936377      -0.35108585      -8.94992432
H       -4.04954007      -1.15316213      -7.55581509
H       -4.99676037       2.49260047      -7.23548345
H       -5.65192695       0.87871717      -7.45472842
H       -4.77731631       1.66084852      -8.79074054
H       -2.48651728       2.83409280      -6.93352868
H       -2.27619941       2.11171947      -8.54468073
H       -1.37495204       1.49269170      -7.15827462
C       -3.69023318      -1.52202264      -2.02638329
C       -4.56924143      -2.06799509      -1.40695243
Br      -5.99052343      -2.95078636      -0.40538513
C       -0.91597798       0.91597798       0.91597798
C       -1.21366961       2.22351755       0.19879376
C       -2.12795129       3.13423244       1.01460482
N       -2.56220674       4.27953617       0.26781415
C       -3.71968641       4.29054731      -0.43842776
O       -4.42549234       3.31301255      -0.62652630
O       -3.97490923       5.55687301      -0.83176461
C       -5.25619870       5.91004647      -1.41523743
C       -6.40191216       5.61145715      -0.43960599
C       -5.18234677       7.42925284      -1.62957797
C       -5.46656750       5.23066015      -2.77131488
H       -0.35849996       1.05586407       1.84504501
H       -1.82453639       0.34221493       1.11847841
H       -1.69643224       1.99980737      -0.76222344
H       -0.27821839       2.74261094      -0.05006394
H       -2.99634307       2.59033336       1.40206903
H       -2.11217021       5.17141933       0.41685644
H       -6.55443549       4.53673267      -0.30619765
H       -7.34815739       6.03493944      -0.79272289
H       -6.18335222       6.02333260       0.55183247
H       -4.36643918       7.68817381      -2.31496964
H       -4.96782169       7.94604596      -0.68592945
H       -6.11639912       7.82902470      -2.03821549
H       -4.61086927       5.40784038      -3.43275649
H       -6.37019739       5.60441243      -3.26544915
H       -5.56924083       4.14597846      -2.67468434
C       -1.42598012       3.65254713       2.16011185
C       -0.83807927       4.08663568       3.11947399
Br       0.11250668       4.78852016       4.67068143
C        0.91597798      -0.91597798       0.91597798
C        0.62010808      -2.38093832       0.63493451
C        1.50187208      -3.31629601       1.45862046
N        1.35998357      -4.68761667       1.06195681
C        2.16842178      -5.26457609       0.13880809
O        2.98668101      -4.66305898      -0.53776140
O        1.95401700      -6.59775834       0.14824228
C        2.83199781      -7.49699244      -0.57798251
C        4.27664238      -7.37364617      -0.07652524
C        2.31714850      -8.90391608      -0.23904293
C        2.73076626      -7.28646939      -2.09132288
H        0.69050411      -0.62447897       1.94442596
H        1.95106738      -0.65330523       0.68085712
H        0.78762034      -2.57889428      -0.43249845
H       -0.44161742      -2.59631007       0.81607274
H        2.55586103      -3.02143864       1.41144579
H        0.78179895      -5.30777723       1.61086981
H        4.72570662      -6.41686403      -0.35760014
H        4.91125906      -8.16618733      -0.48707245
H        4.31281562      -7.42859431       1.01710736
H        1.28011834      -9.03145010      -0.57192509
H        2.31486980      -9.06727094       0.84579745
H        2.92772063      -9.68450758      -0.70501988
H        1.68592249      -7.32039443      -2.42036377
H        3.29114920      -8.05423372      -2.63622225
H        3.12456413      -6.31282194      -2.39685112
C        1.12520660      -3.26586294       2.84756957
C        0.80974926      -3.22362525       4.01081444
Br       0.29968142      -3.15533046       5.89168302
