170
Properties=species:S:1:pos:R:3 pbc="F F F"
C        1.82630382       1.82630382      -1.82630382
H        2.26564440       2.55144535      -1.13007804
O        1.01683281       2.51938367      -2.76493687
C        1.81482793       3.38439963      -3.55354888
O        2.82333785       2.69323930      -4.27967471
C        3.70933829       1.96423444      -3.41490248
H        4.24354964       2.69226510      -2.79386554
C        2.92113550       1.00522657      -2.51117239
H        3.57823960       0.55213627      -1.75760260
O        2.35083913      -0.04834999      -3.29876731
C        3.35039512      -0.76110949      -4.00631032
O        4.02736591       0.07364059      -4.92878703
C        4.70813446       1.16007444      -4.26827110
H        5.47270492       0.71059914      -3.61932163
C        5.40208664       1.98440344      -5.37521494
H        4.69342852       2.13764406      -6.20118536
O        6.48368279       1.18658686      -5.89392863
C        7.11103834       1.84011626      -6.98237425
O        7.76542982       3.01464950      -6.53891989
C        6.84661214       3.97344176      -5.99018760
H        6.24002190       4.36240972      -6.81804918
C        5.94937970       3.34309416      -4.91042844
H        5.10655141       4.02183441      -4.73350378
O        6.59830231       3.22630863      -3.63238401
C        8.00793134       3.40131906      -3.69535311
O        8.36410812       4.69541505      -4.15164097
C        7.61937438       5.09955297      -5.29602024
H        6.92437024       5.88201540      -4.97053208
Br       8.81099538       6.00562258      -6.54973569
H        2.26498108       4.16875173      -2.93233513
H        1.16077291       3.87541636      -4.27950807
H        4.05826417      -1.23400422      -3.31464257
H        2.85792029      -1.55659380      -4.57254514
H        6.39711911       2.06334660      -7.78520984
H        7.87075499       1.16564602      -7.38793287
H        8.39513005       3.29881919      -2.67711983
H        8.48893769       2.61533625      -4.28704753
C       -1.82630382      -1.82630382      -1.82630382
H       -2.52139316      -2.30225347      -1.12352116
O       -1.03101500      -2.82993822      -2.44020012
C       -1.84470035      -3.69046342      -3.21761266
O       -2.54499206      -3.00393012      -4.24732968
C       -3.39365740      -1.96803955      -3.72677827
H       -4.16769598      -2.44620482      -3.11577948
C       -2.58950275      -0.99119719      -2.85683453
H       -3.25664804      -0.28364932      -2.34768110
O       -1.68366938      -0.24092257      -3.67666450
C       -2.37401167       0.46875619      -4.69034047
O       -3.04179484      -0.41161085      -5.57638784
C       -4.03894050      -1.20114876      -4.89639074
H       -4.79223628      -0.50052394      -4.50986548
C       -4.68908173      -2.10729352      -5.96532977
H       -3.89687989      -2.55035733      -6.58502071
O       -5.47306714      -1.26196537      -6.82916577
C       -6.02644076      -2.01132899      -7.89575910
O       -6.97928544      -2.93577771      -7.40393606
C       -6.39093229      -3.90166627      -6.51764294
H       -5.74613122      -4.55439588      -7.11995369
C       -5.58120171      -3.22295513      -5.39874547
H       -4.94308720      -3.98429691      -4.93450548
O       -6.40149308      -2.73034658      -4.32515528
C       -7.78400296      -2.66902030      -4.65158024
O       -8.31986564      -3.94886402      -4.94243448
C       -7.49074375      -4.70646641      -5.81773742
H       -7.04228117      -5.51095421      -5.22368235
Br      -8.61170218      -5.63631350      -7.11833796
H       -2.54969873      -4.23728393      -2.57908528
H       -1.19321239      -4.42818820      -3.69429676
H       -3.07518424       1.19111597      -4.25483425
H       -1.63542243       1.03053962      -5.26898883
H       -5.24785969      -2.51779940      -8.48001646
H       -6.54605638      -1.31643054      -8.56184696
H       -8.31062953      -2.28982788      -3.77061166
H       -7.97989079      -1.95392854      -5.45750215
C       -1.82630382       1.82630382       1.82630382
H       -1.42015968       1.69064301       2.83636511
O       -3.16132739       1.34311515       1.79671080
C       -3.98039492       2.11775594       2.65462558
O       -4.01025148       3.49273891       2.29326148
C       -2.70067990       4.08365326       2.30414207
H       -2.33268779       4.06078638       3.33620611
C       -1.73972391       3.29446029       1.40335027
H       -0.71068065       3.65882334       1.51847447
O       -2.11903031       3.45245892       0.02976722
C       -2.12622478       4.81794770      -0.34857653
O       -3.08126747       5.55605991       0.39246614
C       -2.79293095       5.53807051       1.80547855
H       -1.82385840       6.03854398       1.94022331
C       -3.89605730       6.37372770       2.49192001
H       -4.87162795       6.08303732       2.07759267
O       -3.68152204       7.75178971       2.13088654
C       -4.71389811       8.57170260       2.64792814
O       -4.65670039       8.60003911       4.06225970
C       -4.86862844       7.30161091       4.64000215
H       -5.91874050       7.03106201       4.47067829
C       -3.93137450       6.24838641       4.02314139
H       -4.31734871       5.25675320       4.28778769
O       -2.60284495       6.28141287       4.57273713
C       -2.32698621       7.46187750       5.31573979
O       -3.17563985       7.59164819       6.44387609
C       -4.54231180       7.33614402       6.13649177
H       -4.80392695       6.37640754       6.59658323
Br      -5.66303320       8.63686662       7.06645381
H       -3.66087667       2.00684216       3.69834911
H       -5.00144596       1.73310278       2.58114860
H       -1.12683168       5.25821212      -0.24614129
H       -2.40614956       4.87207372      -1.40435166
H       -5.70160243       8.24634447       2.29772864
H       -4.54888855       9.59036410       2.28508123
H       -1.30177409       7.38008697       5.68920801
H       -2.35269028       8.35544197       4.68318922
C        1.82630382      -1.82630382       1.82630382
H        1.35040282      -1.78293005       2.81383492
O        3.12582493      -1.26056930       1.91475912
C        3.93955987      -2.03795392       2.77526265
O        4.08232142      -3.38162771       2.33230273
C        2.81640967      -4.05183841       2.22022714
H        2.38458200      -4.11988787       3.22521042
C        1.86305974      -3.26590962       1.30856511
H        0.85513928      -3.70002038       1.33281880
O        2.33619042      -3.30921640      -0.04415037
C        2.45680681      -4.64371681      -0.50492767
O        3.41077976      -5.36860479       0.25040897
C        3.03504083      -5.46170742       1.63973175
H        2.09460801      -6.02895578       1.67906190
C        4.14630093      -6.27098087       2.34442322
H        5.12433247      -5.89381676       2.01410870
O        4.04585423      -7.63285890       1.88548516
C        5.09609317      -8.41965708       2.41777860
O        4.95351984      -8.54468659       3.82079278
C        5.04321785      -7.27656883       4.49045482
H        6.08165993      -6.93101053       4.40781033
C        4.07849916      -6.24494837       3.87945478
H        4.38112825      -5.25095620       4.22980515
O        2.72359554      -6.39625550       4.33714391
C        2.48075918      -7.63794656       4.98589776
O        3.26471804      -7.78909270       6.15735340
C        4.62795488      -7.42983308       5.95715963
H        4.79674918      -6.48818788       6.49198067
Br       5.77234563      -8.71723839       6.87676962
H        3.54947990      -2.01608782       3.80050022
H        4.93560682      -1.58687701       2.79321352
H        1.48420539      -5.15074736      -0.49605024
H        2.80445588      -4.61068190      -1.54126615
H        6.07995604      -8.01144579       2.15427372
H        5.02138002      -9.42042377       1.98253009
H        1.43125260      -7.64453117       5.29528531
H        2.60441034      -8.48454643       4.30236471
C       -0.00445707       0.01189536      -1.78238275
H       -0.66409135       0.67374010      -2.43557963
H        0.65740317      -0.63156657      -2.45157240
C       -0.90989263      -0.90692880      -0.91072765
C        0.90977584       0.90977584      -0.90977584
C       -0.00465871       1.77757030       0.00794375
H       -0.66225468       2.44313916      -0.64384735
H        0.64322798       2.43503045       0.67728295
C       -1.78241447       0.00034974      -0.00472694
H       -2.45427497      -0.65498947       0.64260836
H       -2.43311707       0.67328779      -0.65473579
C       -0.91132561       0.90220522       0.91563759
C       -0.01476271      -0.02253852       1.78660255
H       -0.67934791      -0.69751639       2.42135241
H        0.63392994       0.61504881       2.47327442
C        0.01484550      -1.77751727      -0.01636693
H        0.67870853      -2.42144646      -0.68295456
H       -0.62264859      -2.45592969       0.64226336
C        1.78714474       0.01002794       0.00389507
H        2.44202412       0.67113390       0.66197326
H        2.45385902      -0.65136977      -0.64189061
C        0.91606151      -0.90478549       0.90901405
