146
Properties=species:S:1:pos:R:3 pbc="F F F"
N        1.16161359       1.93132987      -3.11367437
C        1.81873735       1.81873735      -1.81873735
C        2.04753023       3.17738628      -1.16232477
C        3.31020223       3.69314901      -1.84342501
C        4.19477488       2.44474395      -1.98688184
H        4.80955737       2.38184708      -1.07683859
C        3.22854102       1.23790476      -1.95746988
C        5.16563167       2.43375610      -3.17712132
H        5.75359719       1.50605636      -3.10735657
C        4.53935476       2.46721452      -4.57337553
C        5.72975493       2.81908929      -5.45713272
C        6.46919631       3.89898855      -4.66215848
C        6.16741139       3.60590555      -3.18192163
N        6.02669460       5.23903384      -5.02236395
Br       8.37431175       3.80820307      -5.02220976
H        1.60174933       2.65145084      -3.67818069
H        0.20127708       2.23321778      -2.95772228
H        2.22994839       3.07733475      -0.08437688
H        1.20582265       3.86775685      -1.28615478
H        3.06249183       4.14167614      -2.81002794
H        3.79591611       4.46754782      -1.24062118
H        3.32580959       0.58997101      -2.83594811
H        3.49176745       0.60800573      -1.09736076
H        3.76449085       3.23415362      -4.66436578
H        4.10219343       1.50602175      -4.85947026
H        6.34851157       1.92402442      -5.60227586
H        5.41222951       3.15199699      -6.45184233
H        7.05607145       3.33641051      -2.59918902
H        5.74287250       4.48834779      -2.68881539
H        5.01098703       5.28477301      -5.02543142
H        6.32756740       5.42970467      -5.97673005
N       -0.95931206      -2.41513343      -2.83217234
C       -1.81873735      -1.81873735      -1.81873735
C       -2.54141266      -2.86768552      -0.97814310
C       -3.72361217      -3.27091676      -1.85224732
C       -4.18445199      -1.95123724      -2.49071144
H       -4.93647775      -1.51509075      -1.81667454
C       -2.95525804      -1.01383221      -2.45482541
C       -4.84206645      -2.05986060      -3.87458204
H       -5.15657704      -1.04586442      -4.16456866
C       -3.96872279      -2.60300094      -5.00822108
C       -4.99576776      -2.92269768      -6.08751150
C       -6.15132741      -3.56456698      -5.31444895
C       -6.10039228      -2.95050674      -3.90433954
N       -6.02428214      -5.01403381      -5.24977643
Br      -7.83950135      -3.17552597      -6.18969726
H       -1.44935739      -3.15197605      -3.33004742
H       -0.17259169      -2.85867250      -2.36095294
H       -2.91277701      -2.44216301      -0.03672000
H       -1.91272002      -3.72704956      -0.71996470
H       -3.40917824      -4.00712539      -2.59789227
H       -4.51734596      -3.73169615      -1.25504301
H       -2.68516776      -0.62383164      -3.44272931
H       -3.21248684      -0.13301342      -1.85163368
H       -3.43053705      -3.51123363      -4.72123956
H       -3.23656347      -1.87047673      -5.36064524
H       -5.30274872      -1.99128901      -6.58077412
H       -4.57841626      -3.57271090      -6.86494167
H       -6.98437749      -2.35163196      -3.65566154
H       -6.04570688      -3.73449314      -3.13983566
H       -5.08238951      -5.27198197      -4.96681997
H       -6.15739578      -5.38913270      -6.18747364
N       -3.07801504       2.01490931       1.11369348
C       -1.81873735       1.81873735       1.81873735
C       -2.01380473       1.18166122       3.19177533
C       -2.41318490       2.35772816       4.07586319
C       -1.53049274       3.51444285       3.58146509
H       -0.60513756       3.48743455       4.17567093
C       -1.13942677       3.15525949       2.12922940
C       -2.11330205       4.92716859       3.73603844
H       -1.34596298       5.63446511       3.38658203
C       -3.39479576       5.22960622       2.95554283
C       -3.87883399       6.51835466       3.60878830
C       -3.64592070       6.28087808       5.10354456
C       -2.45458284       5.31066468       5.18999104
N       -4.81950339       5.71450469       5.75408431
Br      -3.25098229       7.95966079       5.99408151
H       -3.77069108       2.43462214       1.72606764
H       -3.44114860       1.10014822       0.85092032
H       -1.08003668       0.74367653       3.56794681
H       -2.77030377       0.38916256       3.20026795
H       -3.48040919       2.57041583       3.96337089
H       -2.23574702       2.13514111       5.13319699
H       -1.40874522       3.93509325       1.40789023
H       -0.04556663       3.07323333       2.07833398
H       -4.14796958       4.44449899       3.07054168
H       -3.21061763       5.37065352       1.88641429
H       -3.28307563       7.35983762       3.23189860
H       -4.92469659       6.73136839       3.36000385
H       -1.57228078       5.74330978       5.67608042
H       -2.71620604       4.42414874       5.77968090
H       -5.17658976       4.93048341       5.21411829
H       -5.55414630       6.42016954       5.75968628
N        3.15733638      -1.80438846       1.24489299
C        1.81873735      -1.81873735       1.81873735
C        1.79942942      -1.32509031       3.26272155
C        2.23761640      -2.54709063       4.06206922
C        1.54686553      -3.72403212       3.35550302
H        0.56876911      -3.85899068       3.84048325
C        1.26745395      -3.24403317       1.91242855
C        2.26746830      -5.07844974       3.43059104
H        1.62495661      -5.81593462       2.92611889
C        3.64776637      -5.15829851       2.77387993
C        4.20591258      -6.45684337       3.34322100
C        3.79659055      -6.41551074       4.81824205
C        2.50026150      -5.58774056       4.86723650
N        4.82593815      -5.81011538       5.65203885
Br       3.50614777      -8.21594916       5.48262765
H        3.82720646      -2.21817849       1.88599591
H        3.43915121      -0.83352798       1.11953795
H        0.78857031      -1.02998717       3.57310254
H        2.45627026      -0.46580365       3.43766037
H        3.32795547      -2.63587159       4.05036885
H        1.92934429      -2.46517812       5.10956271
H        1.69557291      -3.90545833       1.15069747
H        0.18225473      -3.26855327       1.74632594
H        4.29131660      -4.31874386       3.05294978
H        3.59059648      -5.19510138       1.68198757
H        3.75099858      -7.30636381       2.81744946
H        5.28905237      -6.53265219       3.19436426
H        1.62789265      -6.16032389       5.20345444
H        2.59817099      -4.75188416       5.56998052
H        5.14483597      -4.93762036       5.23873513
H        5.63151434      -6.43337286       5.66911492
C       -0.00445707       0.01189536      -1.78238275
H       -0.66409135       0.67374010      -2.43557963
H        0.65740317      -0.63156657      -2.45157240
C       -0.90989263      -0.90692880      -0.91072765
C        0.90977584       0.90977584      -0.90977584
C       -0.00465871       1.77757030       0.00794375
H       -0.66225468       2.44313916      -0.64384735
H        0.64322798       2.43503045       0.67728295
C       -1.78241447       0.00034974      -0.00472694
H       -2.45427497      -0.65498947       0.64260836
H       -2.43311707       0.67328779      -0.65473579
C       -0.91132561       0.90220522       0.91563759
C       -0.01476271      -0.02253852       1.78660255
H       -0.67934791      -0.69751639       2.42135241
H        0.63392994       0.61504881       2.47327442
C        0.01484550      -1.77751727      -0.01636693
H        0.67870853      -2.42144646      -0.68295456
H       -0.62264859      -2.45592969       0.64226336
C        1.78714474       0.01002794       0.00389507
H        2.44202412       0.67113390       0.66197326
H        2.45385902      -0.65136977      -0.64189061
C        0.91606151      -0.90478549       0.90901405
