162
Properties=species:S:1:pos:R:3 pbc="F F F"
N        1.21902256       1.84793201      -3.14406822
C        1.81975111       1.81975111      -1.81975111
C        1.96039508       3.21044798      -1.20757404
C        3.21887495       3.76198115      -1.86536041
C        4.15278820       2.54948926      -1.99128516
H        4.85376916       2.55649385      -1.14641559
C        3.25813888       1.30169337      -1.86006493
C        4.90696247       2.57321252      -3.22246511
C        5.52855650       2.59276435      -4.23720926
C        6.32000493       2.62039254      -5.54519640
C        6.95812232       2.65087893      -6.55794897
C        7.76947843       2.70130485      -7.77948847
H        7.11952552       2.62709939      -8.66099363
C        8.58119280       3.99162825      -7.86178727
C        9.68042895       3.63457182      -8.84869273
C       10.07150127       2.20576904      -8.45983413
C        8.81516814       1.57791441      -7.83592477
N       11.18501524       2.17760299      -7.52291394
Br      10.63119840       1.22313481     -10.04075517
H        1.72045594       2.48542899      -3.75832558
H        0.26666676       2.20020844      -3.06582766
H        2.11172228       3.15769889      -0.12137204
H        1.09132297       3.85425585      -1.38263428
H        2.97425107       4.19447097      -2.84384458
H        3.66928192       4.55995089      -1.26519491
H        3.41607546       0.56671161      -2.65975347
H        3.51827525       0.78873856      -0.92419405
H        9.01093567       4.26315346      -6.88915219
H        7.97784535       4.83785733      -8.20668587
H        9.27885958       3.68619887      -9.86878680
H       10.51484439       4.34308159      -8.79766776
H        8.42037095       0.72676791      -8.40390300
H        9.02691495       1.18889010      -6.83010671
H       10.99123480       2.77692208      -6.72336316
H       12.00983031       2.55968519      -7.98238391
N       -1.35813159      -1.66282404      -3.19006716
C       -1.81975111      -1.81975111      -1.81975111
C       -1.76685392      -3.26841597      -1.34314721
C       -3.02942549      -3.88263365      -1.93415737
C       -4.08003352      -2.76598292      -1.84754618
H       -4.68688098      -2.92345443      -0.94634319
C       -3.29659452      -1.45058615      -1.67271651
C       -4.95110966      -2.75238230      -2.99914814
C       -5.66905483      -2.74117164      -3.94830364
C       -6.58456675      -2.72812073      -5.17290639
C       -7.31765456      -2.72962056      -6.11967510
C       -8.24188816      -2.74923145      -7.25915215
H       -7.69558765      -2.52703742      -8.18499347
C       -8.93421459      -4.10278272      -7.39761102
C      -10.15736747      -3.77021276      -8.23611328
C      -10.63764464      -2.43149377      -7.66796604
C       -9.38777507      -1.73875989      -7.10247236
N      -11.64687057      -2.60504100      -6.63362060
Br     -11.44561836      -1.36874545      -9.08072457
H       -1.85849113      -2.28851580      -3.81720359
H       -0.37416067      -1.92122374      -3.23731845
H       -1.81013153      -3.33273468      -0.24792699
H       -0.86424991      -3.80052658      -1.66343661
H       -2.84737448      -4.19483683      -2.97035531
H       -3.33966666      -4.77496481      -1.37979623
H       -3.60345472      -0.66452393      -2.37456188
H       -3.50586658      -1.05632261      -0.66901868
H       -9.23472118      -4.50626595      -6.42225419
H       -8.29338041      -4.84684300      -7.88216514
H       -9.85957853      -3.68524446      -9.28902227
H      -10.91260415      -4.56228957      -8.18070001
H       -9.13424949      -0.80246654      -7.61432584
H       -9.53041751      -1.46877071      -6.04672354
H      -11.31714394      -3.25305622      -5.92131987
H      -12.47536138      -3.02537132      -7.05116671
N       -2.62611630       2.64795591       0.93695058
C       -1.81975111       1.81975111       1.81975111
C       -2.66514771       0.95909276       2.75417663
C       -3.05612008       1.92274443       3.86735200
C       -1.82023193       2.81369653       4.05963415
H       -1.23277518       2.42310361       4.90079982
C       -0.97810734       2.66395717       2.77783268
C       -2.17954597       4.18409609       4.33899806
C       -2.47569336       5.31358603       4.56925072
C       -2.86234884       6.76429484       4.85895019
C       -3.16187218       7.89642870       5.10864933
C       -3.52226960       9.27696697       5.45103519
H       -4.05499460       9.74148422       4.61113973
C       -4.40225163       9.33519599       6.69716070
C       -4.22845750      10.77094575       7.16429024
C       -2.73647895      11.04601218       6.95461333
C       -2.29632144      10.13433607       5.79834981
N       -1.95544081      10.77707210       8.15301926
Br      -2.46885026      12.91863128       6.50760684
H       -3.29324146       3.20379375       1.46717530
H       -3.16759458       2.04302016       0.32208811
H       -2.07988510       0.13259717       3.17831094
H       -3.54228771       0.51847451       2.26745087
H       -3.93833707       2.50392768       3.57030187
H       -3.31813159       1.38900329       4.78729284
H       -0.68015408       3.62438309       2.33800337
H       -0.04326708       2.14941048       3.03853032
H       -4.05856233       8.63525720       7.46942179
H       -5.44820258       9.09858589       6.47560007
H       -4.85659421      11.42798664       6.54926441
H       -4.55271970      10.89979033       8.20308371
H       -1.95854514      10.68220990       4.91028682
H       -1.44780505       9.50234501       6.09576170
H       -2.15024923       9.84051287       8.50075794
H       -2.24192510      11.42634643       8.88362788
N        2.20343436      -2.97860913       1.02897931
C        1.81975111      -1.81975111       1.81975111
C        3.02228983      -1.02909167       2.32703559
C        3.47966458      -1.82152711       3.54502482
C        2.17978455      -2.32290593       4.19087214
H        1.90751924      -1.64161877       5.00754058
C        1.09276256      -2.22401954       3.10311508
C        2.32070583      -3.65716093       4.72477335
C        2.43685281      -4.75686019       5.16481711
C        2.59049979      -6.17204846       5.72304562
C        2.71414704      -7.27127273       6.18153045
C        2.86971480      -8.60303658       6.77752038
H        3.07584992      -9.34065120       5.99111744
C        4.00179004      -8.63148940       7.80132888
C        3.67061298      -9.85881750       8.63426302
C        2.14918034      -9.79141111       8.79651300
C        1.62426141      -9.04456627       7.56017964
N        1.75785171      -9.10742359      10.02025688
Br       1.41675000     -11.58951183       8.88882655
H        2.85850862      -3.56704265       1.53865924
H        2.68366656      -2.65958039       0.18945591
H        2.73442764      -0.01670825       2.63965732
H        3.82043567      -0.92392733       1.58385009
H        4.12891362      -2.64976988       3.23388312
H        4.06093545      -1.19936611       4.23412615
H        0.51250646      -3.14778288       2.98225119
H        0.37149627      -1.45310199       3.40660961
H        4.00448426      -7.73063229       8.42812477
H        4.98569979      -8.70960316       7.32708560
H        3.98515147     -10.75854877       8.09014502
H        4.21024111      -9.85734012       9.58801249
H        0.97623096      -9.65510773       6.91970318
H        1.01705372      -8.17639738       7.85246066
H        2.21275435      -8.19884269      10.07992299
H        2.08308545      -9.65086276      10.81795120
C       -0.00445707       0.01189536      -1.78238275
H       -0.66409135       0.67374010      -2.43557963
H        0.65740317      -0.63156657      -2.45157240
C       -0.90989263      -0.90692880      -0.91072765
C        0.90977584       0.90977584      -0.90977584
C       -0.00465871       1.77757030       0.00794375
H       -0.66225468       2.44313916      -0.64384735
H        0.64322798       2.43503045       0.67728295
C       -1.78241447       0.00034974      -0.00472694
H       -2.45427497      -0.65498947       0.64260836
H       -2.43311707       0.67328779      -0.65473579
C       -0.91132561       0.90220522       0.91563759
C       -0.01476271      -0.02253852       1.78660255
H       -0.67934791      -0.69751639       2.42135241
H        0.63392994       0.61504881       2.47327442
C        0.01484550      -1.77751727      -0.01636693
H        0.67870853      -2.42144646      -0.68295456
H       -0.62264859      -2.45592969       0.64226336
C        1.78714474       0.01002794       0.00389507
H        2.44202412       0.67113390       0.66197326
H        2.45385902      -0.65136977      -0.64189061
C        0.91606151      -0.90478549       0.90901405
