162
Properties=species:S:1:pos:R:3 pbc="F F F"
C        1.81688616       1.81688616      -1.81688616
H        1.38578996       1.79942782      -2.82372269
C        1.89191364       3.23161379      -1.27646572
C        3.09878584       3.78931902      -2.01668729
C        4.10514618       2.61935811      -2.06970165
C        3.26384789       1.34180531      -1.83240242
N        5.10761593       2.74765065      -1.01420065
C        4.79368954       2.57843689      -3.36727140
C        5.36188860       2.54627819      -4.42628918
C        6.09032413       2.50596037      -5.77272521
C        6.65527620       2.47363074      -6.81974920
C        7.34073481       2.43441049      -8.09008536
N        6.38375023       2.13077728      -9.15081740
C        8.08152733       3.75111563      -8.36697292
C        9.14434888       3.38119438      -9.39328429
C        9.57467690       1.97300152      -8.99628111
H       10.54145034       1.98006824      -8.48204865
C        8.48350621       1.40203229      -8.08879329
Br       9.82957726       0.87131912     -10.57811989
H        2.06967628       3.24939684      -0.19398834
H        0.98328225       3.80741336      -1.47808981
H        2.79370304       4.09681522      -3.02619071
H        3.49582323       4.68355679      -1.52283570
H        3.41545566       0.57483289      -2.60193799
H        3.52917761       0.86970863      -0.87677268
H        4.65355612       2.84384463      -0.10805896
H        5.64124660       3.60385343      -1.15755491
H        6.84656407       2.07384619     -10.05570752
H        5.70051865       2.88330861      -9.21975115
H        8.56902415       4.12635734      -7.45652719
H        7.42459093       4.55016532      -8.72954486
H        8.71841136       3.42658623     -10.40237161
H        9.98425255       4.08343539      -9.36648310
H        8.14142109       0.39920887      -8.37296040
H        8.89925318       1.29844106      -7.07635936
C       -1.81688616      -1.81688616      -1.81688616
H       -2.85734798      -1.59880733      -1.55278516
C       -1.55750657      -1.55482401      -3.28766258
C       -2.18651710      -2.77605387      -3.94222118
C       -1.84674827      -3.94957743      -2.99788024
C       -1.50475629      -3.29665886      -1.63664047
N       -0.68815965      -4.69292740      -3.48838018
C       -2.98234930      -4.87501927      -2.88202927
C       -3.90840504      -5.63615947      -2.78989146
C       -5.08492666      -6.60961155      -2.67447150
C       -5.99987332      -7.36530230      -2.58348052
C       -7.10996132      -8.28217972      -2.47308963
N       -8.23208238      -7.61227770      -1.82098483
C       -7.51417081      -8.83923680      -3.84620826
C       -8.26260260     -10.12724418      -3.52898077
C       -7.53449947     -10.69451157      -2.31494849
H       -6.88168390     -11.52841450      -2.59346883
C       -6.72234054      -9.55477616      -1.69721507
Br      -8.80878124     -11.42782389      -1.04241116
H       -0.48501072      -1.51305368      -3.51499707
H       -2.01202399      -0.62177186      -3.63498957
H       -3.27242268      -2.62770759      -4.01657871
H       -1.81859535      -2.91894931      -4.96467106
H       -2.07519635      -3.71756115      -0.79946904
H       -0.44534985      -3.44373090      -1.38657816
H        0.09604394      -4.06159525      -3.63990840
H       -0.90708613      -5.09823939      -4.39732942
H       -9.02130361      -8.24546843      -1.70934574
H       -8.55612027      -6.84276688      -2.40469126
H       -6.62749797      -9.07264099      -4.45176971
H       -8.12705815      -8.14481571      -4.43242725
H       -9.31664737      -9.90440384      -3.32631800
H       -8.23728227     -10.82064983      -4.37623893
H       -6.85736317      -9.44180189      -0.61442530
H       -5.65537451      -9.77654294      -1.84213616
C       -1.81688616       1.81688616       1.81688616
H       -2.78141461       1.91956949       1.30795638
C       -1.98656899       1.21514341       3.19828076
C       -2.50559023       2.40098811       3.99821380
C       -1.71885312       3.61565780       3.45969502
C       -1.18547644       3.17887205       2.07370714
N       -0.59516299       3.93758608       4.33671816
C       -2.58576407       4.79767239       3.35596137
C       -3.29201835       5.76725132       3.27518630
C       -4.18842872       7.00486512       3.17571587
C       -4.88549792       7.96629723       3.09686099
C       -5.73123859       9.13279492       3.00119716
N       -6.76587802       8.90325652       1.99621037
C       -6.34541275       9.49171197       4.36249115
C       -6.72391809      10.96135651       4.23355295
C       -5.62103470      11.55764189       3.36528294
H       -4.90689322      12.13238749       3.96428652
C       -4.92137122      10.39651675       2.65644381
Br      -6.37075610      12.81891166       2.08934852
H       -1.03357927       0.86522213       3.61426006
H       -2.68706793       0.37429498       3.20742251
H       -3.58336758       2.51460780       3.81873359
H       -2.38171510       2.24460887       5.07589175
H       -1.43664130       3.88390971       1.27167553
H       -0.08957008       3.10511692       2.08097192
H       -0.01270181       3.11462902       4.47812889
H       -0.94839071       4.19781411       5.25645013
H       -7.36261449       9.72138508       1.89211821
H       -7.36901496       8.13881848       2.29574497
H       -5.60835239       9.37459366       5.16896262
H       -7.20846180       8.86956378       4.62627553
H       -7.71748559      11.05081977       3.77906384
H       -6.77355907      11.44652574       5.21408622
H       -4.80346750      10.53544831       1.57467455
H       -3.90145407      10.31417554       3.05842400
C        1.81688616      -1.81688616       1.81688616
H        1.31266865      -1.91156940       2.78470241
C        2.04407824      -3.17464608       1.18126884
C        3.23364603      -3.69900347       1.97214265
C        4.13691016      -2.46594200       2.19135378
C        3.21628687      -1.23910151       1.98266724
N        5.22154460      -2.43540623       1.21251641
C        4.72239193      -2.47786778       3.53913812
C        5.20653862      -2.48837264       4.63954471
C        5.82811960      -2.50184932       6.03904080
C        6.30990973      -2.51146804       7.12727837
C        6.89446970      -2.52314209       8.44761888
N        5.84069272      -2.37643535       9.44821684
C        7.71538100      -3.79947297       8.68476191
C        8.66672181      -3.43511559       9.81699015
C        9.01157592      -1.97186643       9.56051717
H       10.01113256      -1.86658859       9.12584608
C        7.94830848      -1.41245825       8.61356505
Br       9.06047596      -0.98394977      11.23459056
H        2.30206672      -3.09294761       0.11804714
H        1.17183076      -3.83014211       1.26681255
H        2.88039532      -4.10763530       2.92867836
H        3.73603052      -4.51930644       1.44687877
H        3.24910586      -0.52680388       2.81631681
H        3.51292816      -0.67406861       1.08866215
H        4.84468659      -2.49231987       0.26845326
H        5.80967356      -3.25860043       1.33438096
H        6.22947417      -2.35780682      10.38883680
H        5.21638492      -3.18041501       9.40677849
H        8.29706582      -4.06397748       7.79086537
H        7.09925666      -4.67115576       8.93388869
H        8.17247491      -3.59207610      10.78281819
H        9.55959660      -4.06910363       9.80547081
H        7.50736768      -0.46344809       8.94277459
H        8.42803414      -1.19812768       7.64789179
C       -0.00445707       0.01189536      -1.78238275
H       -0.66409135       0.67374010      -2.43557963
H        0.65740317      -0.63156657      -2.45157240
C       -0.90989263      -0.90692880      -0.91072765
C        0.90977584       0.90977584      -0.90977584
C       -0.00465871       1.77757030       0.00794375
H       -0.66225468       2.44313916      -0.64384735
H        0.64322798       2.43503045       0.67728295
C       -1.78241447       0.00034974      -0.00472694
H       -2.45427497      -0.65498947       0.64260836
H       -2.43311707       0.67328779      -0.65473579
C       -0.91132561       0.90220522       0.91563759
C       -0.01476271      -0.02253852       1.78660255
H       -0.67934791      -0.69751639       2.42135241
H        0.63392994       0.61504881       2.47327442
C        0.01484550      -1.77751727      -0.01636693
H        0.67870853      -2.42144646      -0.68295456
H       -0.62264859      -2.45592969       0.64226336
C        1.78714474       0.01002794       0.00389507
H        2.44202412       0.67113390       0.66197326
H        2.45385902      -0.65136977      -0.64189061
C        0.91606151      -0.90478549       0.90901405
