178
Properties=species:S:1:pos:R:3 pbc="F F F"
C        1.82645711       1.82645711      -1.82645711
C        2.52924478       0.99396032      -2.89588560
H        3.02488635       0.14175797      -2.41428511
C        3.56076749       1.82129036      -3.65917089
C        2.75144447       2.55486842      -4.72263887
C        1.61367843       1.57843984      -5.14484359
C        1.61018864       0.49423962      -4.02176489
N        0.33996860       2.31829374      -5.07119620
C        1.87238789       0.95722322      -6.59815906
N        3.21118811       0.33216592      -6.65130736
C        1.77481286       1.99577371      -7.73756281
C        0.31274742       2.02365664      -8.17961688
C       -0.31359823       0.69602328      -7.72869280
H       -1.09791561       0.91241290      -6.99335371
C        0.82246876      -0.08380200      -7.04566758
C       -0.94581996      -0.05226110      -8.89667335
H        2.54844960       2.28374493      -1.14341581
H        1.18002541       2.60811380      -2.22967616
H        4.29109951       1.15731551      -4.13652293
H        4.11666090       2.51251314      -3.01808062
H        2.35085647       3.47728068      -4.28206371
H        3.39102329       2.87212698      -5.55230198
H        0.60089967       0.25838411      -3.66700072
H        2.01113220      -0.45624911      -4.39081686
H        0.25493357       2.80556603      -4.18202109
H       -0.44064700       1.66383551      -5.09251387
H        3.42425202       0.04147573      -7.60518833
H        3.22065536      -0.52433855      -6.09961734
H        2.37611836       1.68498243      -8.60321411
H        2.12844652       2.99255148      -7.45701177
H       -0.21274784       2.86259336      -7.70966733
H        0.24291297       2.18130576      -9.26173125
H        0.44919888      -0.69305029      -6.21591809
H        1.26549109      -0.78259645      -7.76894304
H       -1.68423441       0.56630997      -9.41549175
H       -0.20525860      -0.40622383      -9.61961509
C       -1.66505333      -1.21064248      -8.43357947
C       -2.26741129      -2.18078688      -8.04573835
Br      -3.24137315      -3.74942833      -7.41863206
C       -1.82645711      -1.82645711      -1.82645711
C       -0.97469068      -2.70767432      -2.73672570
H       -0.24406003      -2.07760793      -3.25926147
C       -1.83325074      -3.45001886      -3.75795914
C       -2.34727237      -4.67370539      -3.00797400
C       -1.20246562      -5.09505768      -2.03943856
C       -0.25156381      -3.85727494      -2.01735439
N       -1.78840271      -5.24655943      -0.69449640
C       -0.46525837      -6.42779660      -2.53471520
N       -0.00260036      -6.26284071      -3.92922032
C       -1.35728124      -7.68701188      -2.46385626
C       -1.16295150      -8.28255186      -1.07051757
C        0.17433104      -7.74555401      -0.53989489
H       -0.02392188      -7.12917560       0.34524647
C        0.73551032      -6.85704163      -1.66280304
C        1.11302252      -8.87642998      -0.13518482
H       -2.43694063      -1.12991532      -2.40875440
H       -2.47778754      -2.38679741      -1.15323043
H       -1.21423952      -3.76400468      -4.60669374
H       -2.65032768      -2.84055032      -4.15637666
H       -3.25687219      -4.39175586      -2.46157281
H       -2.64842758      -5.46239524      -3.70462943
H        0.06404754      -3.58649496      -1.00383709
H        0.67808310      -4.06523111      -2.55855194
H       -2.35401145      -4.43615836      -0.45235087
H       -1.04682860      -5.27260390       0.00373012
H        0.36056071      -7.14695760      -4.28451920
H        0.78290709      -5.61490238      -3.96393886
H       -1.03008207      -8.44024827      -3.19398456
H       -2.41336366      -7.49150695      -2.67313917
H       -1.97835704      -7.97494640      -0.40620941
H       -1.19486466      -9.37698491      -1.11410042
H        1.29305138      -6.00498226      -1.26013580
H        1.44944357      -7.44024342      -2.26103782
H        0.64598868      -9.54119311       0.59763711
H        1.45098060      -9.46879439      -0.99031887
C        2.29304104      -8.35754843       0.50662373
C        3.28130656      -7.92298512       1.04413839
Br       4.87924831      -7.22033302       1.91325413
C       -1.82645711       1.82645711       1.82645711
C       -1.10179602       2.20015859       3.11713609
H       -0.71133735       1.28667999       3.58291210
C       -2.03303844       2.91456807       4.09362223
C       -2.02496828       4.36856023       3.63542324
C       -0.58554290       4.64373862       3.10768034
C        0.03348113       3.22065350       2.93902078
N       -0.70901427       5.25106608       1.76937819
C        0.25203689       5.56273155       4.11707551
N        0.24337319       4.96758204       5.47045255
C       -0.28053676       7.00926469       4.21834794
C        0.43478817       7.81527406       3.13553505
C        1.71540984       7.04546112       2.78106658
H        1.65067190       6.72394475       1.73457815
C        1.71739323       5.80775933       3.69396825
C        2.95636753       7.91674867       2.93821114
H       -2.71719870       1.22566276       2.03274888
H       -2.11485978       2.68530690       1.21764870
H       -1.63256174       2.84077306       5.11160314
H       -3.04383852       2.49519565       4.10822049
H       -2.77648185       4.48951009       2.84420892
H       -2.33290591       5.03658410       4.44596224
H        0.56078973       3.10080268       1.98627156
H        0.78884591       3.02613011       3.70841575
H       -1.34468525       4.71315727       1.18467816
H        0.18940834       5.21496557       1.29014515
H        0.67401064       5.60772816       6.13719857
H        0.82206214       4.12922943       5.48876687
H       -0.02066276       7.45518404       5.18846810
H       -1.36793611       7.08634513       4.12372854
H       -0.20055074       7.91110573       2.24785638
H        0.63395637       8.83435220       3.48555416
H        2.16516292       4.94169923       3.19553037
H        2.33812916       6.01256759       4.57739925
H        2.87991198       8.83272814       2.34475115
H        3.15461911       8.18212057       3.98063121
C        4.12664514       7.23381947       2.45070933
C        5.10675264       6.66186627       2.04242655
Br       6.69150357       5.73706631       1.38226784
C        1.82645711      -1.82645711       1.82645711
C        1.65651671      -1.46311311       3.29946088
H        1.78560684      -0.37973891       3.41558369
C        2.66948026      -2.19592952       4.17581896
C        2.04777655      -3.56741531       4.41375989
C        0.51000266      -3.33292034       4.49403885
C        0.31597657      -1.89703498       3.91318159
N       -0.13617616      -4.28950126       3.57613344
C       -0.03431570      -3.46789141       5.99419446
N        0.72788585      -2.57442790       6.89234765
C        0.04996458      -4.90585012       6.55233469
C       -1.26032947      -5.59706986       6.17928055
C       -2.28776480      -4.48767004       5.91121261
H       -2.59181247      -4.54079788       4.85886559
C       -1.54046104      -3.16640562       6.15838977
C       -3.53120199      -4.65220780       6.77758647
H        2.84963146      -1.63787118       1.48810770
H        1.56402288      -2.86009132       1.59370117
H        2.78746972      -1.66798839       5.12947984
H        3.66056786      -2.26930494       3.71738186
H        2.31435590      -4.22214012       3.57370484
H        2.46933888      -4.03915704       5.30695634
H       -0.51181406      -1.84023971       3.19785885
H        0.05779018      -1.18398212       4.70392765
H        0.30943712      -4.27150050       2.66158307
H       -1.10103091      -4.00835040       3.40838288
H        0.46371334      -2.74482173       7.86238102
H        0.48132852      -1.60241798       6.71218765
H        0.11847856      -4.89680854       7.64902780
H        0.91702926      -5.46820749       6.19277302
H       -1.12753643      -6.20784338       5.27920589
H       -1.57191741      -6.28229341       6.97557399
H       -1.89011779      -2.37542221       5.48676226
H       -1.74883175      -2.82027808       7.18039135
H       -3.98466890      -5.63882940       6.64340682
H       -3.32699483      -4.49460774       7.84051976
C       -4.54659943      -3.70289635       6.40158674
C       -5.39699479      -2.90784800       6.08668696
Br      -6.77201216      -1.62232208       5.57752066
C       -0.00445707       0.01189536      -1.78238275
H       -0.66409135       0.67374010      -2.43557963
H        0.65740317      -0.63156657      -2.45157240
C       -0.90989263      -0.90692880      -0.91072765
C        0.90977584       0.90977584      -0.90977584
C       -0.00465871       1.77757030       0.00794375
H       -0.66225468       2.44313916      -0.64384735
H        0.64322798       2.43503045       0.67728295
C       -1.78241447       0.00034974      -0.00472694
H       -2.45427497      -0.65498947       0.64260836
H       -2.43311707       0.67328779      -0.65473579
C       -0.91132561       0.90220522       0.91563759
C       -0.01476271      -0.02253852       1.78660255
H       -0.67934791      -0.69751639       2.42135241
H        0.63392994       0.61504881       2.47327442
C        0.01484550      -1.77751727      -0.01636693
H        0.67870853      -2.42144646      -0.68295456
H       -0.62264859      -2.45592969       0.64226336
C        1.78714474       0.01002794       0.00389507
H        2.44202412       0.67113390       0.66197326
H        2.45385902      -0.65136977      -0.64189061
C        0.91606151      -0.90478549       0.90901405
