170
Properties=species:S:1:pos:R:3 pbc="F F F"
C        1.82645711       1.82645711      -1.82645711
C        2.52924478       0.99396032      -2.89588560
H        3.02488635       0.14175797      -2.41428511
C        3.56076749       1.82129036      -3.65917089
C        2.75144447       2.55486842      -4.72263887
C        1.61367843       1.57843984      -5.14484359
C        1.61018864       0.49423962      -4.02176489
N        0.33996860       2.31829374      -5.07119620
C        1.87238789       0.95722322      -6.59815906
N        3.21118811       0.33216592      -6.65130736
C        1.77481286       1.99577371      -7.73756281
C        0.31274742       2.02365664      -8.17961688
C       -0.31359823       0.69602328      -7.72869280
H       -1.09791561       0.91241290      -6.99335371
C        0.82246876      -0.08380200      -7.04566758
C       -0.94581996      -0.05226110      -8.89667335
Br      -1.91932706      -1.62017012      -8.26985986
H        2.54844960       2.28374493      -1.14341581
H        1.18002541       2.60811380      -2.22967616
H        4.29109951       1.15731551      -4.13652293
H        4.11666090       2.51251314      -3.01808062
H        2.35085647       3.47728068      -4.28206371
H        3.39102329       2.87212698      -5.55230198
H        0.60089967       0.25838411      -3.66700072
H        2.01113220      -0.45624911      -4.39081686
H        0.25493357       2.80556603      -4.18202109
H       -0.44064700       1.66383551      -5.09251387
H        3.42425202       0.04147573      -7.60518833
H        3.22065536      -0.52433855      -6.09961734
H        2.37611836       1.68498243      -8.60321411
H        2.12844652       2.99255148      -7.45701177
H       -0.21274784       2.86259336      -7.70966733
H        0.24291297       2.18130576      -9.26173125
H        0.44919888      -0.69305029      -6.21591809
H        1.26549109      -0.78259645      -7.76894304
H       -1.68423441       0.56630997      -9.41549175
H       -0.20525860      -0.40622383      -9.61961509
C       -1.82645711      -1.82645711      -1.82645711
C       -3.11359621      -2.20662514      -1.09886936
H       -2.85768126      -2.61150865      -0.11173952
C       -3.91426879      -3.24220525      -1.88475470
C       -4.69933175      -2.42504596      -2.90457404
C       -5.05614005      -1.08435431      -2.19646749
C       -4.12295551      -1.05787915      -0.94535850
N       -4.65224950       0.01527164      -3.09248069
C       -6.60804756      -1.01230294      -1.80741967
N       -6.98635128      -2.19838638      -1.00992373
C       -7.54622462      -0.93000527      -3.03191949
C       -7.71688569       0.55379175      -3.35292700
C       -7.36519614       1.32868113      -2.07460285
H       -6.48029278       1.94537598      -2.27293420
C       -7.01440878       0.25791595      -1.02784152
C       -8.50248912       2.24789758      -1.64400074
Br      -7.95451871       3.37664466      -0.15248863
H       -1.22000566      -2.71035627      -2.04524842
H       -1.99017588      -1.27407878      -2.75356071
H       -4.60492574      -3.76635524      -1.21365697
H       -3.28496675      -3.99908943      -2.36319848
H       -4.06380877      -2.26158383      -3.78480826
H       -5.57169279      -2.98013529      -3.26362417
H       -3.63619244      -0.08677962      -0.80331244
H       -4.69307958      -1.22737750      -0.02524286
H       -3.69967227      -0.11884593      -3.42400248
H       -4.63354573       0.89265239      -2.57480904
H       -7.99516207      -2.21365946      -0.86209456
H       -6.57788687      -2.13965960      -0.07838768
H       -8.53997797      -1.33275227      -2.79158465
H       -7.18725592      -1.48999062      -3.90076323
H       -7.04330887       0.84907456      -4.16527853
H       -8.73465650       0.75454120      -3.70583469
H       -6.23176284       0.60479381      -0.34509764
H       -7.89939774       0.05595373      -0.40839366
H       -8.78682020       2.93543896      -2.44618607
H       -9.38806067       1.69599980      -1.31607179
C       -1.82645711       1.82645711       1.82645711
C       -2.90417136       0.99599745       2.51892189
H       -3.42434371       0.39009067       1.76649506
C       -3.91122802       1.88326104       3.24673968
C       -3.25065354       2.19296656       4.58533166
C       -2.44830879       0.91547063       4.97318243
C       -2.38569473       0.09199592       3.64850250
N       -1.07702079       1.33628702       5.31615073
C       -3.15274371       0.11013448       6.16489198
N       -4.55969764      -0.18207659       5.81704035
C       -3.13138922       0.86330130       7.51345886
C       -1.83538454       0.46386564       8.21677076
C       -1.38216147      -0.86433295       7.59328933
H       -0.42098582      -0.70346743       7.09033262
C       -2.45227196      -1.21313282       6.54519521
C       -1.19390065      -1.94606241       8.65075405
Br      -0.41355955      -3.55171768       7.86852081
H       -2.26881310       2.56043476       1.14636248
H       -1.15737044       2.34447705       2.51596788
H       -4.84466272       1.33141854       3.40885668
H       -4.16097882       2.79350574       2.69277010
H       -2.59168764       3.06168534       4.45682788
H       -3.99546771       2.48936419       5.33062036
H       -1.38431295      -0.30283680       3.44480836
H       -3.03351303      -0.78995541       3.70214233
H       -0.69571477       1.94842383       4.59838208
H       -0.46070084       0.52505939       5.32994214
H       -5.04128199      -0.58888548       6.61851959
H       -4.60056741      -0.89289450       5.08826124
H       -3.96634484       0.54496319       8.15300687
H       -3.21527136       1.94967850       7.41305992
H       -1.06611436       1.22921148       8.06418700
H       -1.99284785       0.39418034       9.29892180
H       -2.01637883      -1.72554772       5.68123557
H       -3.17590996      -1.91183814       6.98776586
H       -0.49488796      -1.62690691       9.42958627
H       -2.13633065      -2.24606183       9.11786384
C        1.82645711      -1.82645711       1.82645711
C        3.13109146      -2.17408756       1.11391168
H        2.89763012      -2.56690421       0.11639511
C        3.93582201      -3.20936595       1.89604079
C        4.69106377      -2.39644277       2.94144523
C        5.03730437      -1.03887013       2.26078735
C        4.12395829      -1.00698710       0.99524776
N        4.60128908       0.03942892       3.16759839
C        6.59386298      -0.93566797       1.89823922
N        7.00412758      -2.10241416       1.08811965
C        7.51085679      -0.85829374       3.13899886
C        7.65219804       0.62262668       3.48644958
C        7.30845658       1.41247951       2.21514079
H        6.41057723       2.01162311       2.40889689
C        6.99193401       0.35340607       1.14580641
C        8.43739286       2.35666548       1.81786490
Br       7.89507784       3.50060999       0.33589484
H        1.23103998      -2.72339243       2.02117794
H        1.96630779      -1.28668336       2.76482422
H        4.64556753      -3.71140748       1.22796294
H        3.31133790      -3.98390892       2.35200783
H        4.03895763      -2.25751469       3.81372854
H        5.56648011      -2.94326464       3.30570751
H        3.62379870      -0.04162127       0.86086454
H        4.71141910      -1.15234790       0.08193294
H        3.64583510      -0.11529421       3.48139138
H        4.57660392       0.92470281       2.66380126
H        8.01529032      -2.09913081       0.95649496
H        6.60972503      -2.03508741       0.15112171
H        8.51474980      -1.24111960       2.90844549
H        7.14718363      -1.43801271       3.99281343
H        6.96099022       0.89383624       4.29235887
H        8.66078928       0.83387417       3.85903488
H        6.21477766       0.69877230       0.45606132
H        7.88989311       0.17573880       0.53768336
H        8.69762526       3.03552973       2.63547179
H        9.33696060       1.82442095       1.49559302
C       -0.00445707       0.01189536      -1.78238275
H       -0.66409135       0.67374010      -2.43557963
H        0.65740317      -0.63156657      -2.45157240
C       -0.90989263      -0.90692880      -0.91072765
C        0.90977584       0.90977584      -0.90977584
C       -0.00465871       1.77757030       0.00794375
H       -0.66225468       2.44313916      -0.64384735
H        0.64322798       2.43503045       0.67728295
C       -1.78241447       0.00034974      -0.00472694
H       -2.45427497      -0.65498947       0.64260836
H       -2.43311707       0.67328779      -0.65473579
C       -0.91132561       0.90220522       0.91563759
C       -0.01476271      -0.02253852       1.78660255
H       -0.67934791      -0.69751639       2.42135241
H        0.63392994       0.61504881       2.47327442
C        0.01484550      -1.77751727      -0.01636693
H        0.67870853      -2.42144646      -0.68295456
H       -0.62264859      -2.45592969       0.64226336
C        1.78714474       0.01002794       0.00389507
H        2.44202412       0.67113390       0.66197326
H        2.45385902      -0.65136977      -0.64189061
C        0.91606151      -0.90478549       0.90901405
