186
Properties=species:S:1:pos:R:3 pbc="F F F"
C        1.82629555       1.82629555      -1.82629555
C        0.98924116       2.89832175      -2.52452485
H        0.10666205       2.43287318      -2.97963976
C        1.79959079       3.62910191      -3.59692245
C        2.61517303       4.64793080      -2.80940917
C        1.67306229       5.12367785      -1.68553836
C        0.56533705       4.04687332      -1.59232636
N        2.41652590       5.24548424      -0.43526755
C        1.09986461       6.44238180      -2.00924703
C        0.66726555       7.53468034      -2.25364545
C        0.16531527       8.95431069      -2.54058739
C       -0.17585319      10.08727599      -2.74392460
C       -0.54341571      11.49603662      -2.97327393
N        0.67576913      12.29229790      -2.95594483
C       -1.54878953      11.99303818      -1.93201701
C       -2.91063231      11.49518205      -2.42342372
C       -2.76306797      11.24351754      -3.93707793
H       -2.85413345      10.16394068      -4.11872412
C       -1.32583707      11.67647436      -4.27855114
C       -3.78286138      11.98720598      -4.78859221
Br      -5.56142566      11.22806945      -4.55863571
H        2.28748909       1.14512932      -2.54748826
H        2.60253136       2.23484751      -1.17459742
H        1.12398264       4.14743854      -4.28849177
H        2.43446230       2.96049894      -4.18648108
H        3.50390082       4.14710740      -2.40303442
H        2.97592773       5.45752996      -3.45424154
H        0.38895519       3.70953042      -0.56477945
H       -0.39541348       4.44670212      -1.94518307
H        2.73379034       4.33213282      -0.12011340
H        1.79037521       5.59037303       0.29223003
H        0.46429312      13.26646871      -3.15859270
H        1.29802731      11.97251359      -3.69676273
H       -1.57199344      13.09106914      -1.90693807
H       -1.33547082      11.64769372      -0.91410034
H       -3.17036637      10.55597407      -1.92025448
H       -3.69388364      12.22003961      -2.17794803
H       -0.91911818      11.08953377      -5.11060657
H       -1.32032010      12.73057291      -4.58874148
H       -3.85374567      13.04691693      -4.52583760
H       -3.55665858      11.89748883      -5.85514409
C       -1.82629555      -1.82629555      -1.82629555
C       -1.18794235      -2.02256524      -3.20158017
H       -0.87021983      -1.05073758      -3.59821758
C       -2.15964008      -2.68736475      -4.17861033
C       -2.07728368      -4.16822702      -3.82700229
C       -0.59493976      -4.40909507      -3.47824367
C       -0.00532295      -3.00703583      -3.19217795
N       -0.49651204      -5.28561290      -2.31515275
C        0.10628980      -5.05623829      -4.60154495
C        0.66597577      -5.62168408      -5.49988303
C        1.36148399      -6.39759275      -6.62410459
C        1.88271544      -7.05580567      -7.48225717
C        2.49806081      -7.91110485      -8.51285080
N        1.78927002      -9.18313490      -8.53014698
C        3.99433739      -8.10996811      -8.26063494
C        4.66355000      -6.85165017      -8.81987328
C        3.67975349      -6.25281192      -9.84446906
H        3.31821995      -5.29110098      -9.45565032
C        2.49695165      -7.23702467      -9.88911541
C        4.28025498      -6.04510958     -11.22808221
Br       5.57354604      -4.58925424     -11.20957130
H       -2.78183243      -1.29867647      -1.89959776
H       -1.97518274      -2.75940758      -1.27738597
H       -1.82005619      -2.53006845      -5.20978830
H       -3.18065052      -2.30145794      -4.09933387
H       -2.72897003      -4.36066716      -2.96440545
H       -2.44475449      -4.79609315      -4.64685160
H        0.56330621      -2.97038535      -2.25618592
H        0.69965200      -2.71375143      -3.98237228
H       -0.87155675      -4.82449406      -1.48998575
H        0.48758872      -5.46236998      -2.11373695
H        2.15796507      -9.78295001      -9.26436959
H        0.80922081      -9.02009990      -8.75642453
H        4.37094860      -8.97766785      -8.81929452
H        4.24600012      -8.26668909      -7.20563427
H        4.83636229      -6.12889890      -8.01332558
H        5.64104501      -7.09687352      -9.24827549
H        1.55660841      -6.72103651     -10.11659407
H        2.66251528      -7.97939939     -10.68211019
H        4.80633888      -6.93228172     -11.59306601
H        3.51753673      -5.75631434     -11.95719672
C       -1.82629555       1.82629555       1.82629555
C       -2.93910117       1.00064034       2.47234626
H       -3.42711812       0.38458599       1.70747089
C       -3.97545489       1.89640776       3.15375251
C       -3.33374934       2.24781639       4.49094727
C       -2.59386645       0.96589737       4.92251469
C       -2.45041172       0.11907388       3.63505113
N       -1.29456946       1.31211616       5.49059207
C       -3.36436648       0.23945879       5.94766818
C       -3.97152751      -0.32875206       6.81281588
C       -4.71929616      -1.01850962       7.95942681
C       -5.27964787      -1.51974229       8.89544182
C       -5.94260572      -2.09578105      10.07907017
N       -5.88502518      -1.11527288      11.15425956
C       -5.29920671      -3.41993408      10.49699303
C       -5.91156536      -4.47143557       9.56784365
C       -7.24142184      -3.88178445       9.05789010
H       -7.14695455      -3.69747962       7.97905642
C       -7.38138896      -2.52645374       9.77425321
C       -8.44981593      -4.77167744       9.31479833
Br      -8.39929465      -6.35216062       8.17814548
H       -2.23157590       2.59118640       1.15734438
H       -1.15991545       2.30205274       2.55000810
H       -4.90287691       1.33515234       3.32188370
H       -4.22422808       2.78771588       2.56949837
H       -2.63584227       3.08145286       4.33674751
H       -4.08047775       2.59099666       5.21622482
H       -1.42944787      -0.24840236       3.48221954
H       -3.08610325      -0.77574531       3.68611376
H       -0.69161397       1.71614641       4.77827618
H       -0.82871986       0.45933761       5.80046073
H       -6.37619113      -1.46176454      11.97492794
H       -6.37084354      -0.26782245      10.86428253
H       -5.56961898      -3.67448445      11.53087923
H       -4.20497494      -3.41595384      10.43730214
H       -5.24340288      -4.65540355       8.71786286
H       -6.03244208      -5.42351927      10.09518120
H       -7.92719060      -1.80309639       9.15692796
H       -7.95028751      -2.65656601      10.70527280
H       -8.49595334      -5.12588865      10.34894417
H       -9.38477550      -4.25904403       9.07024287
C        1.82629555      -1.82629555       1.82629555
C        3.08929856      -1.07493781       2.24785139
H        3.54551426      -0.60593532       1.36772541
C        4.09837090      -2.01016495       2.91707931
C        3.58655365      -2.13890333       4.34705602
C        3.04345696      -0.73960882       4.69921273
C        2.83862760      -0.02316330       3.34274583
N        1.79156328      -0.86665467       5.43905975
C        4.00307136      -0.00527759       5.54314450
C        4.76562181       0.57528870       6.26525823
C        5.71334290       1.28899789       7.23586834
C        6.43100041       1.81652661       8.04087360
C        7.28732874       2.43198100       9.07054710
N        7.25426975       1.58493543      10.25467754
C        6.84234228       3.86005127       9.39397466
C        7.44798564       4.72672288       8.28671068
C        8.63765396       3.93239206       7.71226559
H        8.39657724       3.64719901       6.67915312
C        8.71718605       2.65375275       8.56575513
C        9.95557594       4.69451077       7.73187165
Br       9.93827019       6.14019477       6.42720408
H        2.06570489      -2.70057717       1.21382461
H        1.20398898      -2.13995622       2.66803108
H        5.09348515      -1.54850029       2.91792750
H        4.17992838      -2.98165450       2.41985945
H        2.79077561      -2.89527671       4.36799032
H        4.37355205      -2.48951643       5.02463074
H        1.85153289       0.44478043       3.25651259
H        3.56721543       0.79006383       3.21932010
H        1.06875557      -1.26942142       4.84785958
H        1.45899386       0.06349052       5.69301486
H        7.87349281       1.95568646      10.97154818
H        7.60948299       0.65978692      10.01760755
H        7.25922570       4.18890519      10.35569326
H        5.75457417       3.97987889       9.45162795
H        6.70682962       4.89758546       7.49661803
H        7.73103671       5.70822517       8.68129246
H        9.10586583       1.80924563       7.98440197
H        9.40330795       2.81335722       9.40904357
H       10.16165618       5.14844310       8.70579578
H       10.79511838       4.05132312       7.45217908
C       -0.00445707       0.01189536      -1.78238275
H       -0.66409135       0.67374010      -2.43557963
H        0.65740317      -0.63156657      -2.45157240
C       -0.90989263      -0.90692880      -0.91072765
C        0.90977584       0.90977584      -0.90977584
C       -0.00465871       1.77757030       0.00794375
H       -0.66225468       2.44313916      -0.64384735
H        0.64322798       2.43503045       0.67728295
C       -1.78241447       0.00034974      -0.00472694
H       -2.45427497      -0.65498947       0.64260836
H       -2.43311707       0.67328779      -0.65473579
C       -0.91132561       0.90220522       0.91563759
C       -0.01476271      -0.02253852       1.78660255
H       -0.67934791      -0.69751639       2.42135241
H        0.63392994       0.61504881       2.47327442
C        0.01484550      -1.77751727      -0.01636693
H        0.67870853      -2.42144646      -0.68295456
H       -0.62264859      -2.45592969       0.64226336
C        1.78714474       0.01002794       0.00389507
H        2.44202412       0.67113390       0.66197326
H        2.45385902      -0.65136977      -0.64189061
C        0.91606151      -0.90478549       0.90901405
