146
Properties=species:S:1:pos:R:3 pbc="F F F"
C        1.82621243       1.82621243      -1.82621243
C        2.09126889       3.14729457      -1.12314601
C        3.12622605       4.03176249      -1.85142785
H        4.07566805       3.47854383      -1.84937928
C        2.77842295       4.32230136      -3.34971042
H        2.77556579       3.36358548      -3.88368221
N        1.45168274       4.90218007      -3.48032620
C        0.59296908       4.61290814      -4.48889441
O        0.81838375       3.82828448      -5.39833425
N       -0.56358964       5.30916233      -4.40466025
C        3.85322737       5.20757054      -4.01213868
C        3.65254397       5.36553593      -5.51241901
Br       5.17480783       6.32740928      -6.26810796
N        3.41712959       5.23393097      -1.05249011
C        2.53212666       6.23766110      -0.80219189
O        1.38355339       6.30349286      -1.21086277
N        3.07138489       7.22016918      -0.04127446
H        1.28119482       1.95073099      -2.76465347
H        2.74580809       1.26226054      -2.00320162
H        2.46205663       2.95469875      -0.10676079
H        1.14512476       3.68645606      -0.99153976
H        1.19167902       5.63924381      -2.82584044
H       -0.88445151       5.59706918      -3.49156302
H       -1.27532763       5.04029845      -5.07047948
H        4.83821863       4.76038495      -3.82364434
H        3.86596591       6.20193690      -3.54843109
H        2.77147943       5.96419037      -5.75580943
H        3.60818452       4.40415055      -6.03038950
H        4.38887014       5.48700343      -0.93965233
H        3.70855942       6.93970660       0.69011357
H        2.40270043       7.92917569       0.23481264
C       -1.82621243      -1.82621243      -1.82621243
C       -2.72610983      -2.68378436      -0.95181528
C       -3.78563808      -3.47246964      -1.75130866
H       -4.43433039      -2.73108389      -2.23817688
C       -3.19254304      -4.36774760      -2.89014408
H       -2.70288963      -3.70502139      -3.61492246
N       -2.18270119      -5.27739904      -2.37408877
C       -1.04813390      -5.60783242      -3.03880531
O       -0.72894906      -5.17847572      -4.13757769
N       -0.28850726      -6.49938192      -2.36234377
C       -4.30505446      -5.12287152      -3.64501060
C       -3.79482571      -5.86219220      -4.87348100
Br      -5.31145637      -6.60403298      -5.85483572
N       -4.69018555      -4.18206132      -0.83130379
C       -4.32841211      -5.21802544      -0.02554210
O       -3.21894784      -5.72283850       0.04387731
N       -5.36538930      -5.68065745       0.71321823
H       -1.14107760      -2.42020134      -2.43530034
H       -2.39797131      -1.14810963      -2.46518931
H       -3.25073968      -2.04559132      -0.22718517
H       -2.10983186      -3.36309268      -0.35019604
H       -2.38766370      -5.76594623      -1.50315335
H       -0.34244603      -6.50766233      -1.35407232
H        0.61844694      -6.68529845      -2.76859878
H       -5.07238591      -4.39930102      -3.95056099
H       -4.79834587      -5.84051374      -2.97747430
H       -3.16141043      -6.71438225      -4.61568656
H       -3.27120626      -5.20199114      -5.56952717
H       -5.68096014      -4.11601516      -1.01855060
H       -6.02265295      -4.99865479       1.06315529
H       -5.09656926      -6.38756264       1.38706842
C       -1.82621243       1.82621243       1.82621243
C       -1.71235088       1.37601907       3.27333952
C       -2.41990661       2.32279409       4.26671569
H       -1.91070762       3.29417776       4.19870578
C       -3.92855831       2.58216114       3.93971528
H       -3.97749338       3.08156910       2.96377101
N       -4.66709377       1.33450362       3.83259162
C       -5.65355755       1.11168233       2.92953175
O       -6.03386067       1.91775648       2.09338531
N       -6.20899897      -0.11506472       3.05629869
C       -4.56859931       3.53473121       4.96960607
C       -5.98030338       3.95897572       4.59121981
Br      -6.60541847       5.31338193       5.85152467
N       -2.16559138       1.88771116       5.65024814
C       -2.63256728       0.73516228       6.20425009
O       -3.33898885      -0.09410804       5.65302822
N       -2.24608305       0.59204426       7.49470121
H       -2.83993465       1.72441971       1.43222492
H       -1.47451461       2.85160644       1.68514919
H       -0.65237675       1.31446080       3.55667862
H       -2.09995286       0.35432988       3.36883784
H       -4.49501859       0.62133826       4.54040642
H       -5.64041714      -0.86284465       3.42660820
H       -6.86824980      -0.36418257       2.33138307
H       -3.93466382       4.42663671       5.06094739
H       -4.59235830       3.06366906       5.96030655
H       -6.69643541       3.13646806       4.65857577
H       -6.02621358       4.41670425       3.59980674
H       -1.89973480       2.60079076       6.31500034
H       -1.31699491       0.90591041       7.73524713
H       -2.50320312      -0.30188367       7.89574404
C        1.82621243      -1.82621243       1.82621243
C        1.79439283      -1.31147280       3.25584384
C        2.50441449      -2.24588126       4.25912063
H        1.95263275      -3.19615149       4.25480693
C        3.98524583      -2.58414825       3.88104065
H        3.97072947      -3.12551619       2.92658782
N        4.76984901      -1.37540873       3.68893127
C        5.72447590      -1.23366321       2.73663251
O        6.03401316      -2.08973890       1.92125041
N        6.33563494      -0.02805668       2.78654132
C        4.62922458      -3.51987580       4.92383621
C        6.00416401      -4.02064142       4.50569349
Br       6.62650828      -5.34720485       5.79661194
N        2.32899591      -1.74276040       5.63179435
C        2.86736542      -0.58952928       6.11508496
O        3.58310219       0.18444666       5.49925350
N        2.54377641      -0.37596905       7.41308306
H        2.82517330      -1.78521272       1.38619326
H        1.42620793      -2.84030537       1.74475695
H        0.75126266      -1.19202290       3.58023061
H        2.22809645      -0.30454404       3.29048009
H        4.65869152      -0.62650063       4.37157112
H        5.81543498       0.75858812       3.14733382
H        6.97250332       0.16162828       2.02457525
H        3.96319313      -4.37872698       5.08032782
H        4.71576220      -3.00935291       5.89121880
H        6.75625892      -3.22801809       4.50720223
H        5.98769419      -4.52091979       3.53411059
H        2.06281740      -2.41521102       6.33749748
H        1.61375853      -0.63874781       7.70564611
H        2.85521350       0.52186958       7.76371957
C       -0.00445707       0.01189536      -1.78238275
H       -0.66409135       0.67374010      -2.43557963
H        0.65740317      -0.63156657      -2.45157240
C       -0.90989263      -0.90692880      -0.91072765
C        0.90977584       0.90977584      -0.90977584
C       -0.00465871       1.77757030       0.00794375
H       -0.66225468       2.44313916      -0.64384735
H        0.64322798       2.43503045       0.67728295
C       -1.78241447       0.00034974      -0.00472694
H       -2.45427497      -0.65498947       0.64260836
H       -2.43311707       0.67328779      -0.65473579
C       -0.91132561       0.90220522       0.91563759
C       -0.01476271      -0.02253852       1.78660255
H       -0.67934791      -0.69751639       2.42135241
H        0.63392994       0.61504881       2.47327442
C        0.01484550      -1.77751727      -0.01636693
H        0.67870853      -2.42144646      -0.68295456
H       -0.62264859      -2.45592969       0.64226336
C        1.78714474       0.01002794       0.00389507
H        2.44202412       0.67113390       0.66197326
H        2.45385902      -0.65136977      -0.64189061
C        0.91606151      -0.90478549       0.90901405
