149
Properties=species:S:1:pos:R:3 pbc="F F F"
C        0.00000000       0.00000000       0.00000000
C        0.91672328       0.91672328      -0.91672328
C        1.81116758       0.04301358      -1.78400944
C        2.73799364       0.84924331      -2.71043444
H        3.37665217       0.13369901      -3.24491463
N        3.61411409       1.73898153      -1.96973654
C        4.71567999       1.24895751      -1.33828813
O        5.03110496       0.07246424      -1.26075885
N        5.46896790       2.23118452      -0.78229792
C        1.99361358       1.61032521      -3.68603102
C        1.38008771       2.23761692      -4.49012799
C        0.67488555       2.95864187      -5.41437738
C        0.06135967       3.58593358      -6.21847434
C       -0.68302038       4.34701547      -7.19407092
H       -1.42129486       4.97595296      -6.68074984
N        0.22713518       5.22167522      -7.91049548
C       -0.22290588       6.36016260      -8.50477485
O       -1.38303219       6.73946784      -8.52547865
N        0.77354188       7.06470286      -9.09393506
C       -1.41697373       3.42192748      -8.18122150
C       -2.47307760       2.56702256      -7.49666654
H        1.48650568       1.55316225      -0.23525729
H        0.23024039       1.53145621      -1.50507803
H        1.19043074      -0.62982434      -2.39122915
H        2.41728461      -0.60351575      -1.13698314
H        3.72812352       2.67782411      -2.32579512
H        4.97188246       3.00722375      -0.36869318
H        6.23714195       1.87681647      -0.22448169
H        1.20657600       5.20086601      -7.67022498
H        1.50155340       6.53226744      -9.54757267
H        0.43705096       7.85762475      -9.62775216
H       -0.69298658       2.77927785      -8.70120622
H       -1.89488354       4.02680005      -8.96317032
H       -3.24531234       3.17211250      -7.01777710
H       -2.04579104       1.87178021      -6.77037694
C       -3.14037289       1.74751908      -8.47479282
C       -3.69923270       1.06118492      -9.29397359
Br      -4.60286175      -0.04855938     -10.61851960
C       -0.91672328      -0.91672328      -0.91672328
C       -2.06618744      -1.47887255      -0.09313062
C       -3.01181291      -2.38280363      -0.90305485
H       -3.76501614      -2.78022857      -0.21002111
N       -2.31950360      -3.51876657      -1.48456198
C       -1.99547967      -4.59306789      -0.71437807
O       -2.16761472      -4.68698817       0.49027483
N       -1.44400226      -5.59825820      -1.44018988
C       -3.69409640      -1.65136578      -1.94450763
C       -4.25644163      -1.04850700      -2.80288398
C       -4.90281545      -0.35556587      -3.78952347
C       -5.46516068       0.24729291      -4.64789982
C       -6.14744417       0.97873076      -5.68935261
H       -5.40955375       1.49251137      -6.31836557
N       -6.87557408       0.04450849      -6.52824030
C       -7.18445043       0.35829057      -7.81587170
O       -6.92329452       1.41322470      -8.37184448
N       -7.83279091      -0.64738770      -8.45200119
C       -7.11118981       2.02291451      -5.09789996
C       -6.38300458       3.09983138      -4.30743830
H       -0.26377616      -1.69828015      -1.31286889
H       -1.25818106      -0.27512431      -1.73346926
H       -2.64330067      -0.65283820       0.34430331
H       -1.65765192      -2.04590042       0.75280035
H       -2.53675551      -3.75129325      -2.44369399
H       -0.82522192      -5.33026410      -2.19231337
H       -1.10625389      -6.36370256      -0.86848366
H       -6.83259054      -0.93857434      -6.30650212
H       -8.49555591      -1.17909421      -7.90674339
H       -8.15969540      -0.38743754      -9.37529493
H       -7.85499725       1.52664521      -4.45914545
H       -7.68146470       2.49514184      -5.90876397
H       -5.67579828       3.65652878      -4.92530776
H       -5.87138965       2.70270461      -3.42768107
C       -7.33389885       4.05790464      -3.80594480
C       -8.13027280       4.86029100      -3.38594400
Br      -9.41794212       6.15768187      -2.70683822
C       -0.91672328       0.91672328       0.91672328
C       -1.79114419       1.80411395       0.04293246
C       -2.71805579       2.73045306       0.84916254
H       -3.25800175       3.36404574       0.13321832
N       -1.97732937       3.61315236       1.73235042
C       -1.35233119       4.71526288       1.23533156
O       -1.28082806       5.02622927       0.05727073
N       -0.79543864       5.47476107       2.21225064
C       -3.68754988       1.98523207       1.61718786
C       -4.48661711       1.37101309       2.25020241
C       -5.40508519       0.66501426       2.97780534
C       -6.20415243       0.05079527       3.61081990
C       -7.17364651      -0.69442572       4.37884522
H       -6.65480520      -1.42806895       5.00867170
N       -7.89021746       0.21636773       5.25272070
C       -8.47807022      -0.23145155       6.39541289
O       -8.49254328      -1.39010578       6.77947680
N       -9.06841491       0.76545699       7.09830791
C       -8.16154017      -1.43609786       3.46073295
C       -7.47616731      -2.49288579       2.60732998
H       -0.23500879       1.49182437       1.54809205
H       -1.49980692       0.23036809       1.53659961
H       -2.39855405       1.17821136      -0.62492986
H       -1.14919266       2.41021251      -0.60865317
H       -2.33005589       3.72952675       2.67216011
H       -0.37669561       4.98249653       2.98860725
H       -0.24217341       6.24373766       1.85252903
H       -7.65400280       1.19667770       5.22698650
H       -9.52714276       1.48946921       6.56478154
H       -9.59766072       0.43002999       7.89473716
H       -8.68704245      -0.71682416       2.81727920
H       -8.93909948      -1.91470446       4.07069180
H       -6.99171573      -3.26072428       3.21358581
H       -6.75442586      -2.06549231       1.90743256
C       -8.45488084      -3.16743681       1.79449498
C       -9.27455343      -3.73237329       1.11374567
Br     -10.59989467      -4.64582780       0.01303160
C        0.91672328      -0.91672328       0.91672328
C        0.93981683      -2.33432690       0.36404688
C        1.80840724      -3.29753169       1.19173247
H        1.71108302      -4.29683520       0.74734759
N        1.36027330      -3.39319079       2.56936806
C        0.27118792      -4.14528814       2.88644956
O       -0.45318494      -4.72446215       2.09305085
N        0.05674462      -4.20048623       4.22521949
C        3.20259201      -2.92247865       1.16489915
C        4.35169378      -2.61335598       1.14278285
C        5.67250041      -2.25804258       1.11736181
C        6.82160218      -1.94891991       1.09524551
C        8.21578695      -1.57386687       1.06841219
H        8.31915088      -0.52899371       1.38726335
N        8.94944006      -2.40176477       2.00810105
C       10.12172065      -1.97143732       2.54887360
O       10.67270188      -0.91145995       2.29775247
N       10.64277022      -2.86084393       3.42856565
C        8.80668827      -1.72428133      -0.34479435
C        8.15301170      -0.78556606      -1.34796626
H        0.48861677      -0.86549223       1.92081622
H        1.90434325      -0.44776784       0.91466354
H        1.30478650      -2.31900568      -0.67195663
H       -0.08699143      -2.71860433       0.31913909
H        2.06956387      -3.37328871       3.28889017
H        0.23967532      -3.35740489       4.75071917
H       -0.80549561      -4.67238787       4.47154785
H        8.44466393      -3.09887856       2.53412451
H       10.53972992      -3.83934747       3.20231612
H       11.56492340      -2.59974140       3.75776307
H        8.70655780      -2.76475256      -0.68381287
H        9.88566916      -1.52294744      -0.31352976
H        8.28356404       0.26349502      -1.07549176
H        7.09180330      -0.99936260      -1.49479980
C        8.76696833      -0.95449433      -2.63952365
C        9.28115701      -1.09597176      -3.72120297
Br      10.11255662      -1.32472878      -5.47018693
