170
Properties=species:S:1:pos:R:3 pbc="F F F"
C        1.82662730       1.82662730      -1.82662730
C        2.72107161       0.95291761      -2.69391346
C        3.64789766       1.75914734      -3.62033846
H        4.28655619       1.04360303      -4.15481866
N        4.52401811       2.64888555      -2.87964056
C        5.62558402       2.15886154      -2.24819215
O        5.94100899       0.98236827      -2.17066288
N        6.37887192       3.14108855      -1.69220195
C        2.90351761       2.52022923      -4.59593504
C        2.28999173       3.14752094      -5.40003201
C        1.58478957       3.86854589      -6.32428140
C        0.97126370       4.49583760      -7.12837837
C        0.22688364       5.25691950      -8.10397495
H       -0.51139083       5.88585699      -7.59065387
N        1.13703920       6.13157925      -8.82039951
C        0.68699814       7.27006662      -9.41467887
O       -0.47312817       7.64937187      -9.43538268
N        1.68344590       7.97460688     -10.00383909
C       -0.50706971       4.33183150      -9.09112553
C       -1.56317358       3.47692659      -8.40657056
H        2.39640970       2.46306627      -1.14516131
H        1.14014441       2.44136024      -2.41498205
H        2.10033476       0.28007969      -3.30113318
H        3.32718863       0.30638828      -2.04688716
H        4.63802755       3.58772813      -3.23569915
H        5.88178648       3.91712777      -1.27859721
H        7.14704597       2.78672050      -1.13438571
H        2.11648002       6.11077004      -8.58012901
H        2.41145743       7.44217146     -10.45747669
H        1.34695498       8.76752877     -10.53765619
H        0.21691744       3.68918187      -9.61111025
H       -0.98497952       4.93670407      -9.87307435
H       -2.33540832       4.08201652      -7.92768113
H       -1.13588702       2.78168423      -7.68028097
C       -2.23046887       2.65742311      -9.38469685
C       -2.78932868       1.97108894     -10.20387761
Br      -3.69295772       0.86134464     -11.52842363
C       -1.82662730      -1.82662730      -1.82662730
C       -1.01668559      -2.34542626      -3.00579082
C       -1.82702650      -3.24803413      -3.95232283
H       -1.17400032      -3.51841007      -4.79256749
N       -2.98156541      -2.56426304      -4.50671578
C       -2.82925173      -1.67644021      -5.52694576
O       -1.76727320      -1.31728019      -6.00948674
N       -4.01860103      -1.20960928      -5.98395211
C       -2.25542618      -4.46342306      -3.30083264
C       -2.60851771      -5.46515941      -2.76386757
C       -3.01437003      -6.61658050      -2.14666633
C       -3.36746156      -7.61831685      -1.60970126
C       -3.79586124      -8.83370578      -0.95821107
H       -4.34202969      -8.58300826      -0.04008207
N       -4.70349547      -9.54961481      -1.83590768
C       -5.61736328     -10.42276574      -1.33161461
O       -5.75129994     -10.70806007      -0.15226636
N       -6.39851569     -10.96790560      -2.29547058
C       -2.59481809      -9.72535286      -0.59571637
C       -1.67220716      -9.06809252       0.41997611
H       -2.66611186      -1.20030595      -2.13821947
H       -2.18855955      -2.62934620      -1.17858095
H       -0.14413512      -2.90115891      -2.63625360
H       -0.61776850      -1.49290571      -3.56978986
H       -3.85302819      -3.07519429      -4.53323234
H       -4.73823757      -1.04478154      -5.29449235
H       -3.91943227      -0.47445183      -6.67426807
H       -4.91634701      -9.15260367      -2.73842839
H       -5.95337590     -11.18167488      -3.17605481
H       -7.01076769     -11.69570737      -1.94566488
H       -2.03148095      -9.98212489      -1.50360373
H       -2.95667475     -10.67900449      -0.18911966
H       -2.18296836      -8.85153079       1.36020982
H       -1.20387714      -8.15868073       0.03647969
C       -0.58785929      -9.96094618       0.73715438
C        0.32028205     -10.70871111       1.00279119
Br       1.78866978     -11.91778377       1.43230344
C       -1.82662730       1.82662730       1.82662730
C       -2.83707225       0.96320212       2.56762831
C       -3.77191384       1.77003649       3.48543313
H       -4.49345435       1.06793058       3.92359295
N       -4.53153048       2.76755714       2.75345660
C       -5.61535829       2.40075838       2.01652104
O       -6.00220514       1.25762584       1.83420915
N       -6.25976746       3.46922195       1.48317302
C       -3.05008480       2.40917552       4.56042156
C       -2.45514570       2.93596063       5.44643835
C       -1.77130766       3.54146077       6.46484844
C       -1.17636856       4.06824588       7.35086522
C       -0.45453952       4.70738491       8.42585366
H        0.35884980       5.31476553       8.00920429
N       -1.35321186       5.59513732       9.14066878
C       -0.87187450       6.65635250       9.84351663
O        0.30651331       6.94951514       9.96862455
N       -1.85867428       7.38945914      10.41375845
C        0.14361303       3.66840891       9.39109145
C        1.18657348       2.78775619       8.71914087
H       -2.30250467       2.54620969       1.15592293
H       -1.14449389       2.35008851       2.50190430
H       -2.30760427       0.20870468       3.16523868
H       -3.43715108       0.40626468       1.83704831
H       -4.60782599       3.68630157       3.16732726
H       -5.68372846       4.23359191       1.16019109
H       -7.00801664       3.20868149       0.85145404
H       -2.31216897       5.66048048       8.83472961
H       -2.65114568       6.88136551      10.77859439
H       -1.50907063       8.11891619      11.02415313
H       -0.65694849       3.04591589       9.81434518
H        0.60367399       4.18405564      10.24441726
H        2.02970790       3.36667880       8.33731843
H        0.76688581       2.17484071       7.91812328
C        1.72607548       1.85922646       9.67850011
C        2.17790840       1.08158281      10.48196346
Br       2.90848402      -0.17580120      11.78109576
C        1.82662730      -1.82662730       1.82662730
C        2.07038012      -3.16084539       1.13667717
C        2.95413209      -4.11818007       1.95507130
H        3.01939717      -5.06412363       1.40145708
N        2.37997730      -4.41819013       3.25437679
C        1.35815733      -5.31046945       3.36401093
O        0.79152091      -5.86590162       2.43661760
N        1.01421209      -5.54184653       4.65610380
C        4.29089925      -3.60035911       2.12842352
C        5.39267682      -3.17356562       2.27130224
C        6.65908782      -2.68299839       2.43553066
C        7.76086539      -2.25620489       2.57840938
C        9.09763256      -1.73838393       2.75176160
H        9.04605385      -0.73229449       3.18677169
N        9.82086277      -2.58894488       3.67921030
C       10.87331500      -2.10504496       4.39338368
O       11.32114820      -0.97188761       4.31859057
N       11.39982493      -3.03142947       5.23063747
C        9.84493558      -1.66259469       1.40835706
C        9.19447818      -0.68695049       0.43889491
H        1.29392425      -1.93629761       2.77441542
H        2.74833656      -1.26095395       1.98719619
H        2.53632193      -2.98827165       0.15695404
H        1.10503184      -3.64149224       0.93393999
H        3.00396701      -4.40829023       4.04919759
H        1.04317621      -4.75075208       5.28358317
H        0.19144098      -6.12568206       4.75102914
H        9.34832076      -3.39060771       4.06845060
H       11.43447772      -3.98261673       4.89401113
H       12.24660935      -2.71613597       5.68939462
H        9.90128606      -2.66167109       0.95425242
H       10.88437178      -1.35570600       1.58472112
H        9.17407206       0.33144622       0.83166349
H        8.18599292      -0.99096130       0.14912397
C        9.95411401      -0.64112039      -0.78358332
C       10.59030902      -0.60273769      -1.80740883
Br      11.61898253      -0.54067611      -3.46284810
C       -0.00445707       0.01189536      -1.78238275
H       -0.66409135       0.67374010      -2.43557963
H        0.65740317      -0.63156657      -2.45157240
C       -0.90989263      -0.90692880      -0.91072765
C        0.90977584       0.90977584      -0.90977584
C       -0.00465871       1.77757030       0.00794375
H       -0.66225468       2.44313916      -0.64384735
H        0.64322798       2.43503045       0.67728295
C       -1.78241447       0.00034974      -0.00472694
H       -2.45427497      -0.65498947       0.64260836
H       -2.43311707       0.67328779      -0.65473579
C       -0.91132561       0.90220522       0.91563759
C       -0.01476271      -0.02253852       1.78660255
H       -0.67934791      -0.69751639       2.42135241
H        0.63392994       0.61504881       2.47327442
C        0.01484550      -1.77751727      -0.01636693
H        0.67870853      -2.42144646      -0.68295456
H       -0.62264859      -2.45592969       0.64226336
C        1.78714474       0.01002794       0.00389507
H        2.44202412       0.67113390       0.66197326
H        2.45385902      -0.65136977      -0.64189061
C        0.91606151      -0.90478549       0.90901405
