130
Properties=species:S:1:pos:R:3 pbc="F F F"
N        2.12505781       2.38215121      -5.44025842
C        2.42907254       2.43948636      -4.06488659
C        1.63728182       1.68920154      -3.18202043
C        1.79687454       1.79687454      -1.79687454
C        2.72709293       2.69495767      -1.27576999
C        3.47953270       3.49042251      -2.14428681
C        3.33261459       3.39519454      -3.54321006
C        4.14394187       4.28787901      -4.40407381
C        5.54548578       4.13969277      -4.40515433
C        6.36694132       4.99043841      -5.15025604
Cl       8.07103515       4.71682650      -5.08109145
C        5.79602281       6.02058809      -5.89685930
C        4.40677656       6.17847911      -5.91155870
C        3.56921197       5.29172391      -5.21896735
N        2.18922773       5.57000808      -5.17854947
Cl       2.99048149       2.89222785       0.41984627
H        1.75311742       1.48415411      -5.73903673
H        2.89858757       2.67669886      -6.03295315
H        0.88657518       1.01158368      -3.58294627
H        4.17820049       4.21541604      -1.72823998
H        6.00127919       3.35301896      -3.80533515
H        3.96554515       7.00091580      -6.47016603
H        1.63337359       4.73344334      -4.98922886
H        1.83810673       6.06002345      -5.99508413
C        6.57975573       6.95411003      -6.66360534
C        7.23613205       7.73593465      -7.30575515
Br       8.29743705       9.00007895      -8.34405709
N       -4.54786424      -4.20412873      -1.19547446
C       -3.54852016      -3.49373802      -1.89118732
C       -2.72188380      -2.62865031      -1.15796969
C       -1.79687454      -1.79687454      -1.79687454
C       -1.71894904      -1.79013077      -3.18874079
C       -2.57843608      -2.60403145      -3.93177448
C       -3.51672011      -3.44927838      -3.30502071
C       -4.41486477      -4.26584740      -4.15518253
C       -3.85191697      -5.26922282      -4.96919310
C       -4.64056368      -6.03106378      -5.83600831
Cl      -3.84714363      -7.23614505      -6.78566443
C       -6.01124378      -5.78705233      -5.91517409
C       -6.58716473      -4.79911219      -5.11053744
C       -5.81608810      -4.07259830      -4.19121683
N       -6.43004669      -3.01485939      -3.49287919
Cl      -0.60668883      -0.79637837      -4.05979587
H       -4.28863480      -4.44540127      -0.24227219
H       -4.88563350      -5.01915096      -1.70345512
H       -2.80221900      -2.60557384      -0.07331229
H       -2.53608735      -2.56605549      -5.01971367
H       -2.77841220      -5.44966031      -4.93156079
H       -7.65113875      -4.58975511      -5.19573312
H       -5.94020612      -2.79185828      -2.62398138
H       -7.42237695      -3.14595754      -3.32487981
C       -6.88123006      -6.50979142      -6.80644963
C       -7.60984357      -7.11508540      -7.55289289
Br      -8.78794999      -8.09379458      -8.75982851
N       -5.39521017       2.67431883       1.87793843
C       -4.02201196       2.71755665       2.19387689
C       -3.14899509       1.90339268       1.45611603
C       -1.79687454       1.79687454       1.79687454
C       -1.30974945       2.47457849       2.91349265
C       -2.18272163       3.24114734       3.69037304
C       -3.54854869       3.36057006       3.36190045
C       -4.42248360       4.16847941       4.24493169
C       -4.18706867       5.55412210       4.34914211
C       -4.93945122       6.35764669       5.21053786
Cl      -4.56809867       8.04392303       5.25693140
C       -5.93392018       5.78022381       5.99932620
C       -6.18456009       4.40788508       5.90436920
C       -5.47928337       3.60340284       4.99721702
N       -5.69627068       2.21224458       5.02927002
Cl       0.34403351       2.40053212       3.40636446
H       -5.58237686       2.50019673       0.89373467
H       -5.90792047       3.48761823       2.21270088
H       -3.53139609       1.34592057       0.60378847
H       -1.80181752       3.73821720       4.58182180
H       -3.39580699       6.00907917       3.75474714
H       -6.93989383       3.95442124       6.54231191
H       -5.44715676       1.76347890       4.14541013
H       -6.63002483       1.94201426       5.32117521
C       -6.72768969       6.53848078       6.93130064
C       -7.39247165       7.17352098       7.71182923
Br      -8.46736786       8.20032729       8.97387794
N        1.48437493      -3.29037932       5.17271319
C        2.08046248      -2.89508870       3.95789432
C        1.31981969      -2.11674271       3.07194139
C        1.79687454      -1.79687454       1.79687454
C        3.02999965      -2.29220549       1.37561545
C        3.76949676      -3.11729186       2.22745339
C        3.30481552      -3.44992735       3.51627632
C        4.12819062      -4.35121881       4.35648526
C        5.39841725      -3.91165034       4.78026530
C        6.24444995      -4.73922331       5.52396251
Cl       7.77796217      -4.09765412       5.99333681
C        5.83699123      -6.03433315       5.84214582
C        4.57759074      -6.48474374       5.43447989
C        3.69515285      -5.64157526       4.74317512
N        2.48984586      -6.18730538       4.26063403
Cl       3.69591029      -1.94729461      -0.18034183
H        0.82157568      -2.61315004       5.54158253
H        2.16316372      -3.56516070       5.87991516
H        0.34202879      -1.75566332       3.38341302
H        4.71504484      -3.52967791       1.87713376
H        5.73449279      -2.91010521       4.51503530
H        4.27397571      -7.50513737       5.65751390
H        1.77693136      -5.47095214       4.10816229
H        2.12242500      -6.94914414       4.82164516
C        6.66615429      -6.95352482       6.57779200
C        7.36057835      -7.72334784       7.19389567
Br       8.48340332      -8.96808656       8.19008321
C       -0.00445707       0.01189536      -1.78238275
H       -0.66409135       0.67374010      -2.43557963
H        0.65740317      -0.63156657      -2.45157240
C       -0.90989263      -0.90692880      -0.91072765
C        0.90977584       0.90977584      -0.90977584
C       -0.00465871       1.77757030       0.00794375
H       -0.66225468       2.44313916      -0.64384735
H        0.64322798       2.43503045       0.67728295
C       -1.78241447       0.00034974      -0.00472694
H       -2.45427497      -0.65498947       0.64260836
H       -2.43311707       0.67328779      -0.65473579
C       -0.91132561       0.90220522       0.91563759
C       -0.01476271      -0.02253852       1.78660255
H       -0.67934791      -0.69751639       2.42135241
H        0.63392994       0.61504881       2.47327442
C        0.01484550      -1.77751727      -0.01636693
H        0.67870853      -2.42144646      -0.68295456
H       -0.62264859      -2.45592969       0.64226336
C        1.78714474       0.01002794       0.00389507
H        2.44202412       0.67113390       0.66197326
H        2.45385902      -0.65136977      -0.64189061
C        0.91606151      -0.90478549       0.90901405
