117
Properties=species:S:1:pos:R:3 pbc="F F F"
C        0.00000000       0.00000000       0.00000000
N        0.64310219       2.27651736      -4.31339527
C        1.12380282       2.06689668      -3.00910653
C        0.39515553       1.23065118      -2.15242082
C        0.88721356       0.88721356      -0.88721356
C        2.14325463       1.34443645      -0.48144719
C        2.90522151       2.13261696      -1.34676562
C        2.40993937       2.47921906      -2.61014281
C        3.22621919       3.29805071      -3.45946789
C        3.88350777       4.02018053      -4.15834290
C        4.68450762       4.98931796      -5.03214417
C        5.27896376       5.79474423      -5.69458182
C        5.96378786       6.79767656      -6.45895930
C        7.33600657       6.97500054      -6.24317282
C        8.04377808       7.94402783      -6.95778093
Cl       9.73123431       8.10696356      -6.62587422
C        7.38007888       8.72817397      -7.90437015
C        6.00903084       8.54628354      -8.12312748
C        5.27435490       7.61779936      -7.37322395
N        3.93072782       7.38712336      -7.71851886
Br       8.26285463      10.05328408      -8.94054644
Cl       2.82112921       0.96920654       1.06260993
H       -0.36818614       2.25106150      -4.39998778
H        1.04824234       3.08234150      -4.78206132
H       -0.56869032       0.84469771      -2.47676445
H        3.89080950       2.47572380      -1.03853997
H        7.85500045       6.35178730      -5.51769554
H        5.50391217       9.13614910      -8.88476214
H        3.38805472       6.93460256      -6.98784598
H        3.45175360       8.19451691      -8.10563556
N       -0.70447629      -2.17012668      -4.35841184
C       -1.15235114      -2.01215966      -3.03529522
C       -0.42301102      -1.17966831      -2.17554820
C       -0.88721356      -0.88721356      -0.88721356
C       -2.11716145      -1.39265719      -0.45931963
C       -2.88142254      -2.17785854      -1.32532301
C       -2.41385417      -2.47343249      -2.61201458
C       -3.23103433      -3.29131651      -3.46138695
C       -3.88769263      -4.01220178      -4.16213679
C       -4.68602617      -4.97911443      -5.04082916
C       -5.27644852      -5.78241769      -5.70942360
C       -5.95451428      -6.78280555      -6.48310388
C       -7.31414604      -7.00657275      -6.23346113
C       -8.01464398      -7.97518407      -6.95575878
Cl      -9.68623871      -8.19718288      -6.58065049
C       -7.35695076      -8.71203608      -7.94363615
C       -5.99870684      -8.48365578      -8.19607924
C       -5.26912754      -7.55577075      -7.44047992
N       -3.94340445      -7.27583325      -7.81713232
Br      -8.23158904     -10.03238406      -8.99271204
Cl      -2.75971990      -1.08188855       1.11388262
H        0.30268013      -2.11242718      -4.47311608
H       -1.10002340      -2.97379529      -4.83882649
H        0.51942555      -0.75637025      -2.51582714
H       -3.84728358      -2.55852536      -0.99926433
H       -7.82916431      -6.41992923      -5.47538975
H       -5.49957123      -9.03635392      -8.98889826
H       -3.39261441      -6.82861539      -7.08927346
H       -3.45313596      -8.05736156      -8.24140855
N       -3.78107922       3.13078108       0.32115451
C       -2.82042165       2.36969920       1.00968517
C       -1.94108504       1.56980401       0.26733848
C       -0.88721356       0.88721356       0.88721356
C       -0.67421110       1.03508787       2.25983930
C       -1.50843042       1.87317641       3.00299727
C       -2.56496711       2.55171727       2.38261686
C       -3.39960117       3.39412515       3.19001146
C       -4.13017783       4.06537998       3.86647339
C       -5.10396245       4.87406359       4.72794371
C       -5.90371116       5.45913232       5.40544634
C       -6.88677813       6.11111055       6.22253504
C       -6.50374856       6.55682717       7.49360420
C       -7.42764780       7.18998289       8.32795615
Cl      -6.87895586       7.70081674       9.88429948
C       -8.73616917       7.39329833       7.88315549
C       -9.11658390       6.95197922       6.60987874
C       -8.21657499       6.26438498       5.78441824
N       -8.61116871       5.95459396       4.47060735
Br     -10.05472719       8.26524070       8.93671726
Cl       0.59992562       0.22668822       3.10096322
H       -4.11337847       2.71101369      -0.54152903
H       -4.54381580       3.46467923       0.90415014
H       -2.08234458       1.47766488      -0.80723762
H       -1.33354334       2.00230077       4.06922915
H       -5.47960562       6.41291421       7.83196346
H      -10.12711970       7.14240687       6.25529685
H       -8.04931624       5.23114924       4.03003777
H       -9.60636523       5.78613769       4.35940315
N        4.51092821      -1.63320078       1.08888582
C        3.15116221      -1.60425599       1.44438782
C        2.26784290      -0.85474963       0.65563499
C        0.88721356      -0.88721356       0.88721356
C        0.36889847      -1.71098016       1.88925964
C        1.23206352      -2.50617372       2.64636685
C        2.61318766      -2.46930273       2.41681086
C        3.45955041      -3.29778195       3.22640542
C        4.17873580      -3.95376582       3.92952957
C        5.10939917      -4.73771728       4.85885330
C        5.84598277      -5.30166828       5.62063876
C        6.72490894      -5.93154351       6.56397127
C        6.23324734      -7.00732539       7.31360719
C        7.04893805      -7.64715133       8.24949746
Cl       6.36424895      -8.95901318       9.14080995
C        8.36739564      -7.22021297       8.42501439
C        8.85957475      -6.14785454       7.67101258
C        8.03590110      -5.45962161       6.76985549
N        8.61302318      -4.47394111       5.94940574
Br       9.55773004      -8.04326773       9.65568737
Cl      -1.31980721      -1.80683532       2.24069772
H        4.85055186      -0.78368427       0.64862701
H        5.12827069      -1.95482208       1.82955239
H        2.66331061      -0.23716240      -0.14770117
H        0.82819487      -3.16076647       3.41611193
H        5.21130221      -7.34963561       7.16354547
H        9.89658962      -5.84087396       7.78735983
H        7.94002945      -3.83357339       5.53690041
H        9.39815342      -3.98510171       6.36865094
