122
Properties=species:S:1:pos:R:3 pbc="F F F"
Cl       2.08529681       2.44235562      -5.72085454
C        2.38495334       2.54185993      -4.01925828
C        1.58786077       1.76464058      -3.17701003
C        1.79779234       1.79779234      -1.79779234
C        2.77316507       2.63478429      -1.23393605
C        3.59634989       3.36716908      -2.09926469
C        3.40737965       3.35305145      -3.49567075
C        4.29387112       4.16607050      -4.34552714
C        5.54825380       3.64531241      -4.72178905
C        6.44842716       4.37799410      -5.50659975
N        7.62445588       3.75337010      -5.95221376
C        6.03373695       5.62515776      -5.99921130
C        4.79977435       6.16791578      -5.63786514
C        3.94032566       5.44591339      -4.80804591
Cl       2.43459703       6.18281676      -4.37790222
Br       7.15604533       6.64376117      -7.14662333
N        3.09697775       2.58845908       0.13274105
H        0.81379516       1.12853598      -3.59844164
H        4.40436816       3.96550726      -1.68082809
H        5.82176364       2.64117701      -4.40000461
H        8.01062661       3.06776920      -5.31109106
H        8.32340390       4.41109308      -6.29128962
H        4.50260328       7.14619634      -6.00649659
H        3.51077852       3.44231272       0.49409726
H        2.32558121       2.25846364       0.70989527
Cl      -3.50332310      -1.37012908      -5.37505479
C       -3.02341817      -2.06034875      -3.86230463
C       -2.20186880      -1.29313778      -3.03450481
C       -1.79779234      -1.79779234      -1.79779234
C       -2.16919701      -3.08700409      -1.38568430
C       -3.03555054      -3.81988443      -2.20734869
C       -3.45955499      -3.33558866      -3.46095819
C       -4.35143081      -4.16892505      -4.28511290
C       -5.73882913      -4.13707426      -4.03945187
C       -6.63797440      -4.92503929      -4.77000732
N       -8.01589810      -4.75120808      -4.56293356
C       -6.13435406      -5.69050233      -5.83324961
C       -4.76463186      -5.74568776      -6.09523564
C       -3.87886032      -4.99663117      -5.31879348
Cl      -2.19097063      -5.12538595      -5.67895943
Br      -7.29634700      -6.71615595      -6.93392688
N       -1.89111344      -3.56703843      -0.09454391
H       -1.88831397      -0.30165062      -3.35080819
H       -3.39032015      -4.79208529      -1.86829807
H       -6.12341680      -3.47448572      -3.26504273
H       -8.27473709      -4.50075899      -3.61399079
H       -8.57613608      -5.51586795      -4.93378257
H       -4.38645161      -6.36286800      -6.90597660
H       -1.85723409      -4.57923453      -0.02252535
H       -1.07657159      -3.12226072       0.32468273
Cl      -4.05390302       5.02357450       1.17102945
C       -3.26689059       3.70687623       1.97230473
C       -2.46570081       2.86607921       1.19773136
C       -1.79779234       1.79779234       1.79779234
C       -1.95040369       1.52535801       3.16612370
C       -2.71691312       2.41076107       3.93510947
C       -3.40243647       3.49742162       3.35624375
C       -4.21058235       4.37502801       4.21985840
C       -3.57530293       5.42060797       4.91944437
C       -4.28224958       6.27385954       5.77691189
N       -3.61508814       7.37233125       6.34262035
C       -5.67576387       6.12600531       5.85633682
C       -6.33025838       5.09576791       5.17952897
C       -5.59950545       4.22036467       4.37441485
Cl      -6.46557051       2.95013198       3.57961352
Br      -6.72276543       7.30009101       6.92357339
N       -1.18793048       0.54344322       3.82132207
H       -2.35618635       3.05212690       0.13245953
H       -2.78611013       2.25401485       5.01057853
H       -2.50560848       5.57458630       4.78275048
H       -2.63204403       7.21618424       6.54125860
H       -4.11424586       7.78217280       7.12936794
H       -7.40683571       4.97781788       5.27064262
H       -1.61421179       0.17766641       4.66711578
H       -0.87533974      -0.19621995       3.19502978
Cl       3.98601965      -5.07340921       1.18907811
C        3.23632780      -3.72925365       1.98049010
C        2.43629784      -2.88800597       1.20520757
C        1.79779234      -1.79779234       1.79779234
C        1.97931092      -1.50434747       3.15822702
C        2.74379661      -2.38967086       3.92931619
C        3.39996716      -3.49819567       3.35793901
C        4.20788680      -4.37481607       4.22276588
C        3.56700149      -5.39666522       4.95168855
C        4.27406780      -6.24725419       5.81169902
N        3.59802115      -7.32374269       6.40827590
C        5.67112993      -6.12272653       5.86424955
C        6.33136073      -5.11615918       5.15803537
C        5.60180723      -4.24209360       4.35038413
Cl       6.47562873      -3.00140110       3.51828617
Br       6.71627960      -7.29642122       6.93372901
N        1.24574359      -0.49784690       3.80910529
H        2.30472867      -3.09058331       0.14546081
H        2.83473166      -2.21549511       5.00047675
H        2.49253948      -5.53404193       4.83636385
H        2.62151056      -7.14679164       6.62118468
H        4.10382180      -7.72861055       7.19335425
H        7.41127029      -5.01571412       5.22831180
H        1.69322329      -0.12501860       4.64075210
H        0.93502779       0.23622952       3.17535130
C       -0.00445707       0.01189536      -1.78238275
H       -0.66409135       0.67374010      -2.43557963
H        0.65740317      -0.63156657      -2.45157240
C       -0.90989263      -0.90692880      -0.91072765
C        0.90977584       0.90977584      -0.90977584
C       -0.00465871       1.77757030       0.00794375
H       -0.66225468       2.44313916      -0.64384735
H        0.64322798       2.43503045       0.67728295
C       -1.78241447       0.00034974      -0.00472694
H       -2.45427497      -0.65498947       0.64260836
H       -2.43311707       0.67328779      -0.65473579
C       -0.91132561       0.90220522       0.91563759
C       -0.01476271      -0.02253852       1.78660255
H       -0.67934791      -0.69751639       2.42135241
H        0.63392994       0.61504881       2.47327442
C        0.01484550      -1.77751727      -0.01636693
H        0.67870853      -2.42144646      -0.68295456
H       -0.62264859      -2.45592969       0.64226336
C        1.78714474       0.01002794       0.00389507
H        2.44202412       0.67113390       0.66197326
H        2.45385902      -0.65136977      -0.64189061
C        0.91606151      -0.90478549       0.90901405
