101
Properties=species:S:1:pos:R:3 pbc="F F F"
C        0.00000000       0.00000000       0.00000000
Cl       1.17539279       1.53245159      -4.81095052
C        1.47504931       1.63195591      -3.10935426
C        0.67795674       0.85473656      -2.26710600
C        0.88788832       0.88788832      -0.88788832
C        1.86326104       1.72488026      -0.32403202
C        2.68644586       2.45726506      -1.18936067
C        2.49747562       2.44314742      -2.58576672
C        3.38396710       3.25616647      -3.43562312
C        4.63834977       2.73540839      -3.81188502
C        5.53852313       3.46809008      -4.59669573
N        6.71455185       2.84346607      -5.04230974
C        5.12383293       4.71525373      -5.08930727
C        3.88987033       5.25801175      -4.72796112
C        3.03042164       4.53600937      -3.89814189
Cl       1.52469300       5.27291274      -3.46799819
Br       6.24614131       5.73385715      -6.23671931
N        2.18707372       1.67855506       1.04264507
H       -0.09610886       0.21863195      -2.68853762
H        3.49446414       3.05560324      -0.77092406
H        4.91185961       1.73127298      -3.49010059
H        7.10072259       2.15786518      -4.40118703
H        7.41349988       3.50118906      -5.38138559
H        3.59269925       6.23629231      -5.09659257
H        2.60087450       2.53240869       1.40400128
H        1.41567718       1.34855962       1.61979929
Cl      -1.64360468      -4.79700826      -1.07818195
C       -1.68192623      -3.10319395      -1.43123929
C       -0.90330411      -2.26039569      -0.63609951
C       -0.88788832      -0.88788832      -0.88788832
C       -1.67780839      -0.32955437      -1.90481058
C       -2.41156837      -1.19754587      -2.72395735
C       -2.44590435      -2.58730240      -2.49318303
C       -3.25786712      -3.43937808      -3.37851148
C       -2.71180360      -3.86925305      -4.60458654
C       -3.44110079      -4.65915204      -5.50305610
N       -2.79572384      -5.15900324      -6.64560059
C       -4.71456812      -5.10149422      -5.11233159
C       -5.28246136      -4.68649302      -3.90688881
C       -4.56124202      -3.85255765      -3.05077323
Cl      -5.32907892      -3.35471251      -1.58181250
Br      -5.73403600      -6.25196860      -6.23071316
N       -1.57998473       1.02456739      -2.26756636
H       -0.30373172      -2.67663130       0.16930231
H       -2.97249055      -0.78646721      -3.56203369
H       -1.69058096      -3.58602271      -4.85662952
H       -2.07960109      -4.55070425      -7.02946946
H       -3.44244950      -5.49963415      -7.35399087
H       -6.27999319      -5.01657126      -3.62901968
H       -2.40966749       1.39830759      -2.71792201
H       -1.25554241       1.61503085      -1.50392595
Cl      -1.56487572       4.80750434       1.14641484
C       -1.64653192       3.10783696       1.46199059
C       -0.86890793       2.26541645       0.66547493
C       -0.88788832       0.88788832       0.88788832
C       -1.71115147       0.32537790       1.87564396
C       -2.44391962       1.19150656       2.69764540
C       -2.44393983       2.58624041       2.49620952
C       -3.25663767       3.43674974       3.38236928
C       -2.72818136       3.82878636       4.62867547
C       -3.45984650       4.61508804       5.52837440
N       -2.82884477       5.07669080       6.69479209
C       -4.71497781       5.09292486       5.12049126
C       -5.26538480       4.71579045       3.89466795
C       -4.54363604       3.88475284       3.03618401
Cl      -5.28996336       3.43468276       1.54095782
Br      -5.73381350       6.24125243       6.24165183
N       -1.64976556      -1.03789092       2.21110907
H       -0.24346387       2.68553305      -0.11793621
H       -3.03132658       0.77502194       3.51464292
H       -1.71883305       3.51835276       4.89604738
H       -2.13415852       4.44513161       7.08048466
H       -3.48335866       5.41615981       7.39655605
H       -6.24950782       5.07308490       3.60299141
H       -2.49666511      -1.40307923       2.63569603
H       -1.32146914      -1.61896573       1.44193410
Cl       1.21258220      -1.49167834       4.81453436
C        1.49180756      -1.61362742       3.11092449
C        0.69398077      -0.83691142       2.26890713
C        0.88788832      -0.88788832       0.88788832
C        1.84737243      -1.74214129       0.32265961
C        2.67205192      -2.47406549       1.18695418
C        2.49908455      -2.44216522       2.58514000
C        3.38598404      -3.25560401       3.43416863
C        4.65030427      -2.74490855       3.79043037
C        5.55104697      -3.47890387       4.57335810
N        6.73897249      -2.86269103       4.99866415
C        5.12801894      -4.71569237       5.08468262
C        3.88403873      -5.24844923       4.74335523
C        3.02338597      -4.52609747       3.91508945
Cl       1.50471983      -5.25066675       3.51021735
Br       6.25177351      -5.73402773       6.23091653
N        2.15617906      -1.71480106      -1.04799641
H       -0.06808586      -0.18739654       2.69175003
H        3.46852393      -3.08616985       0.76629766
H        4.93138269      -1.74760421       3.45424629
H        7.12551110      -2.18873460       4.34552910
H        7.43430513      -3.52445077       5.33731862
H        3.58012248      -6.21910913       5.12635252
H        2.55626785      -2.57728266      -1.40426860
H        1.38203834      -1.38257356      -1.62017439
