130
Properties=species:S:1:pos:R:3 pbc="F F F"
Cl       2.08529681       2.44235562      -5.72085454
C        2.38495334       2.54185993      -4.01925828
C        1.58786077       1.76464058      -3.17701003
C        1.79779234       1.79779234      -1.79779234
C        2.77316507       2.63478429      -1.23393605
C        3.59634989       3.36716908      -2.09926469
C        3.40737965       3.35305145      -3.49567075
C        4.29387112       4.16607050      -4.34552714
C        5.54825380       3.64531241      -4.72178905
C        6.44842716       4.37799410      -5.50659975
N        7.62445588       3.75337010      -5.95221376
C        6.03373695       5.62515776      -5.99921130
C        4.79977435       6.16791578      -5.63786514
C        3.94032566       5.44591339      -4.80804591
Cl       2.43459703       6.18281676      -4.37790222
N        3.09697775       2.58845908       0.13274105
H        0.81379516       1.12853598      -3.59844164
H        4.40436816       3.96550726      -1.68082809
H        5.82176364       2.64117701      -4.40000461
H        8.01062661       3.06776920      -5.31109106
H        8.32340390       4.41109308      -6.29128962
H        4.50260328       7.14619634      -6.00649659
H        3.51077852       3.44231272       0.49409726
H        2.32558121       2.25846364       0.70989527
C        6.88389495       6.39675838      -6.86838553
C        7.59590228       7.04297390      -7.59631895
Br       8.74715791       8.08784975      -8.77332572
Cl      -5.31352263      -3.61448442      -1.32049992
C       -3.83452956      -3.07343100      -2.03811099
C       -3.00826513      -2.25021696      -1.27102929
C       -1.79779234      -1.79779234      -1.79779234
C       -1.41214168      -2.12198389      -3.10775982
C       -2.23008098      -2.99073516      -3.84196751
C       -3.45746528      -3.46299060      -3.33564596
C       -4.28002338      -4.35456259      -4.17088279
C       -3.99564681      -5.73484239      -4.18486606
C       -4.72320078      -6.63228472      -4.97753550
N       -4.47364201      -8.00807372      -4.84832401
C       -5.82097995      -6.13803213      -5.69909393
C       -6.12184196      -4.77523537      -5.70847794
C       -5.34916628      -3.88879802      -4.95632066
Cl      -5.75892093      -2.20882950      -5.02756557
N       -0.14313790      -1.79459623      -3.61496164
H       -3.30498646      -1.97297576      -0.26281056
H       -1.90895765      -3.30904694      -4.83269892
H       -3.19263639      -6.11547168      -3.55483719
H       -3.51128659      -8.24684460      -4.63135569
H       -4.85039533      -8.55737690      -5.61801437
H       -6.95970157      -4.40327590      -6.29231873
H       -0.10061411      -1.73098513      -4.62739474
H        0.26597869      -0.98105965      -3.15906862
C       -6.65187899      -7.01977255      -6.47738732
C       -7.34775694      -7.75823016      -7.12920804
Br      -8.47293272      -8.95225364      -8.18314702
Cl      -5.27037490       3.68781317       1.29031890
C       -3.81505807       3.10641972       2.02459376
C       -2.98983642       2.28212632       1.25754864
C       -1.79779234       1.79779234       1.79779234
C       -1.43067636       2.09084913       3.12035991
C       -2.24613592       2.96110882       3.85553892
C       -3.45510382       3.46520832       3.33578970
C       -4.27663976       4.35652595       4.17230305
C       -3.96746979       5.73080647       4.21707900
C       -4.69313680       6.62700491       5.01287930
N       -4.41619718       8.00005135       4.91379120
C       -5.81294114       6.14014568       5.70501918
C       -6.13870609       4.78322248       5.68362670
C       -5.36848398       3.89644976       4.92935123
Cl      -5.81003174       2.22335586       4.96192841
N       -0.17747986       1.73077997       3.64443594
H       -3.27279771       2.02885566       0.23911941
H       -1.93770801       3.25530193       4.85769358
H       -3.14610339       6.10788361       3.60895825
H       -3.44579019       8.22483478       4.71886190
H       -4.79709894       8.54213675       5.68655092
H       -6.99389474       4.41630054       6.24510093
H       -0.15491876       1.64795438       4.65612085
H        0.22513619       0.91823247       3.18105330
C       -6.64193755       7.02282740       6.48427392
C       -7.33622204       7.76207333       7.13689975
Br      -8.45882135       8.95737149       8.19214054
Cl       1.22570709      -3.86567409       5.15712579
C        1.99708301      -3.18215026       3.76683828
C        1.22048908      -2.38414249       2.92487982
C        1.79779234      -1.79779234       1.79779234
C        3.14226829      -2.03054059       1.46907653
C        3.91712709      -2.79157125       2.35408532
C        3.36104825      -3.39567757       3.49937603
C        4.22796792      -4.20329379       4.37420704
C        5.00754891      -3.55483100       5.35297535
C        5.87189917      -4.26232772       6.19879411
N        6.52203254      -3.57294585       7.23506135
C        5.87817785      -5.66348111       6.11644704
C        5.12117518      -6.33151761       5.15286248
C        4.30908230      -5.60390245       4.28130022
Cl       3.41252751      -6.48848764       3.09430086
N        3.78330601      -1.34850373       0.42088603
H        0.17206322      -2.21344537       3.15526419
H        4.97907461      -2.92116884       2.15046006
H        4.92918230      -2.47362113       5.46014182
H        6.75879843      -2.60937520       7.02131325
H        7.30369230      -4.09053153       7.63156277
H        5.15552517      -7.41564319       5.08412785
H        4.58895608      -1.83284300       0.03719491
H        3.13662916      -1.04052156      -0.30300113
C        6.69134274      -6.45281622       7.00487990
C        7.37236834      -7.11388438       7.74894241
Br       8.47352914      -8.18277567       8.95202857
C       -0.00445707       0.01189536      -1.78238275
H       -0.66409135       0.67374010      -2.43557963
H        0.65740317      -0.63156657      -2.45157240
C       -0.90989263      -0.90692880      -0.91072765
C        0.90977584       0.90977584      -0.90977584
C       -0.00465871       1.77757030       0.00794375
H       -0.66225468       2.44313916      -0.64384735
H        0.64322798       2.43503045       0.67728295
C       -1.78241447       0.00034974      -0.00472694
H       -2.45427497      -0.65498947       0.64260836
H       -2.43311707       0.67328779      -0.65473579
C       -0.91132561       0.90220522       0.91563759
C       -0.01476271      -0.02253852       1.78660255
H       -0.67934791      -0.69751639       2.42135241
H        0.63392994       0.61504881       2.47327442
C        0.01484550      -1.77751727      -0.01636693
H        0.67870853      -2.42144646      -0.68295456
H       -0.62264859      -2.45592969       0.64226336
C        1.78714474       0.01002794       0.00389507
H        2.44202412       0.67113390       0.66197326
H        2.45385902      -0.65136977      -0.64189061
C        0.91606151      -0.90478549       0.90901405
