117
Properties=species:S:1:pos:R:3 pbc="F F F"
C        0.00000000       0.00000000       0.00000000
Cl       0.45576348       2.62140412      -4.45337157
C        1.14809467       2.11565165      -2.95169385
C        0.37179435       1.31406719      -2.11389882
C        0.88800647       0.88800647      -0.88800647
C        2.16780190       1.28295987      -0.46240425
C        2.95249857       2.04176738      -1.34018544
C        2.44487651       2.48163103      -2.57133084
C        3.27494764       3.30993248      -3.39559337
C        3.95199821       4.03753156      -4.06962725
C        4.78634286       5.01299812      -4.90357772
C        5.41642271       5.82248607      -5.52831757
C        6.15132851       6.82518663      -6.24175202
C        7.53605338       6.90970279      -6.03792499
C        8.29989699       7.90749370      -6.65651622
N        9.69727667       7.87678377      -6.51783421
C        7.65990481       8.76524018      -7.56744926
C        6.28237056       8.68887514      -7.78494698
C        5.52814691       7.72361140      -7.11663655
Cl       3.82553534       7.68048875      -7.41621873
Br       8.63980217      10.09444365      -8.50920839
N        2.75874768       0.76387484       0.70150174
H       -0.62913259       1.02061438      -2.41924206
H        3.97262106       2.29818965      -1.06053907
H        8.02433816       6.18942933      -5.38427159
H       10.02686293       7.51589748      -5.62802100
H       10.14248794       8.75679314      -6.77087662
H        5.79707670       9.37458061      -8.47461627
H        3.48244117       1.34964235       1.10623960
H        2.07611242       0.45562109       1.39131589
Cl      -0.40707338      -4.39071030      -2.73275551
C       -1.12060915      -2.91632162      -2.17850939
C       -0.34971483      -2.08548380      -1.36456174
C       -0.88800647      -0.88800647      -0.88800647
C       -2.21120985      -0.51826770      -1.18368847
C       -2.95051111      -1.33762769      -2.04631259
C       -2.42492198      -2.54565055      -2.52726584
C       -3.25586252      -3.37103194      -3.35357903
C       -3.96321463      -4.08406212      -4.01188027
C       -4.87953540      -5.02351099      -4.79987230
C       -5.61541068      -5.78440327      -5.36741241
C       -6.51263897      -6.70673714      -5.99889105
C       -7.66173331      -6.19966760      -6.62228025
C       -8.60866748      -7.05388551      -7.20135392
N       -9.67911723      -6.49446410      -7.91831331
C       -8.33114901      -8.43130071      -7.23014453
C       -7.18768744      -8.95003607      -6.61846918
C       -6.28302560      -8.08812062      -5.99724864
Cl      -4.88941725      -8.78537159      -5.24745398
Br      -9.52608321      -9.64979948      -8.06757152
N       -2.73109974       0.73708300      -0.82710403
H        0.66722487      -2.37021955      -1.10772916
H       -3.95191466      -1.03389116      -2.34554395
H       -7.82178000      -5.12359126      -6.65266783
H      -10.00622452      -5.60146060      -7.56309629
H      -10.43922021      -7.15275344      -8.07818406
H       -6.99806991     -10.02022324      -6.62798044
H       -3.74308904       0.77080125      -0.75355612
H       -2.26794017       1.14444496      -0.01692239
Cl      -4.05164632       0.24867270       3.23022016
C       -2.77179227       1.05308930       2.39055859
C       -1.93904211       0.28130160       1.57941665
C       -0.88800647       0.88800647       0.88800647
C       -0.62826596       2.26259779       1.02230228
C       -1.50747869       3.02986048       1.79711222
C       -2.56311049       2.43307875       2.50164913
C       -3.38776212       3.26367836       3.32903301
C       -4.05472419       3.94950882       4.05492402
C       -4.86873940       4.80723068       5.02694861
C       -5.46825137       5.46771384       5.83126114
C       -6.14435229       6.24990938       6.82400549
C       -6.16229461       7.64427376       6.67711279
C       -6.75129784       8.46730745       7.64530162
N       -6.85120252       9.84577489       7.39491724
C       -7.41344506       7.85563691       8.72351228
C       -7.40888263       6.46770606       8.87960400
C       -6.76834263       5.66646429       7.93358794
Cl      -6.78548077       3.95512731       8.18163474
Br      -8.30674951       8.89864993      10.03805477
N        0.33676915       2.91811455       0.23977537
H       -2.11314143      -0.78732417       1.48490659
H       -1.36686707       4.10747117       1.85701153
H       -5.70677090       8.09422431       5.79704387
H       -6.08815172      10.23359224       6.84903745
H       -7.04739342      10.38999912       8.23276517
H       -7.90494017       6.00987213       9.73146129
H        0.69501245       3.77849533       0.64236103
H        1.07932268       2.29836338      -0.07862310
Cl       0.93785668      -1.82993545       4.76274704
C        1.36727936      -1.75894304       3.08921775
C        0.58214613      -0.96921464       2.24839959
C        0.88800647      -0.88800647       0.88800647
C        1.95525139      -1.61905339       0.33886125
C        2.76464065      -2.36246341       1.20734733
C        2.46572905      -2.45785627       2.57425305
C        3.29485670      -3.28725304       3.39836375
C        3.96233512      -4.01337625       4.08344565
C        4.77169169      -4.98330584       4.94792116
C        5.36895812      -5.78660854       5.61165970
C        6.05196602      -6.78245898       6.38384216
C        7.32269848      -7.19895144       5.96203124
C        8.01385660      -8.21307977       6.63697055
N        9.33115810      -8.51016402       6.25057252
C        7.44486544      -8.73764216       7.81008665
C        6.18255505      -8.32811916       8.24551847
C        5.48414597      -7.35607913       7.52816975
Cl       3.92155293      -6.89371396       8.10697594
Br       8.35487789     -10.05969831       8.82887801
N        2.36269267      -1.45373506      -0.99530696
H       -0.26121938      -0.41714623       2.65479700
H        3.63852909      -2.87858780       0.81423288
H        7.77737205      -6.72820220       5.09246483
H        9.51896351      -8.39188839       5.25992951
H        9.65809812      -9.40681041       6.60524919
H        5.74463989      -8.75996488       9.14166881
H        2.86676760      -2.24410897      -1.38503265
H        1.61244076      -1.13187460      -1.60389774
