146
Properties=species:S:1:pos:R:3 pbc="F F F"
Cl       1.36566751       3.53130815      -5.36327560
C        2.05799869       3.02555567      -3.86159787
C        1.28169837       2.22397121      -3.02380285
C        1.79791050       1.79791050      -1.79791050
C        3.07770593       2.19286390      -1.37230827
C        3.86240260       2.95167140      -2.25008946
C        3.35478053       3.39153505      -3.48123486
C        4.18485167       4.21983650      -4.30549739
C        4.86190223       4.94743559      -4.97953127
C        5.69624688       5.92290214      -5.81348174
C        6.32632674       6.73239010      -6.43822160
C        7.06123254       7.73509065      -7.15165605
C        8.44595741       7.81960681      -6.94782902
C        9.20980102       8.81739772      -7.56642025
N       10.60718069       8.78668779      -7.42773824
C        8.56980883       9.67514421      -8.47735329
C        7.19227459       9.59877917      -8.69485101
C        6.43805093       8.63351542      -8.02654058
Cl       4.73543937       8.59039278      -8.32612275
N        3.66865170       1.67377886      -0.20840228
H        0.28077144       1.93051840      -3.32914608
H        4.88252508       3.20809367      -1.97044309
H        8.93424219       7.09933335      -6.29417561
H       10.93676695       8.42580150      -6.53792502
H       11.05239197       9.66669717      -7.68078065
H        6.70698073      10.28448464      -9.38452029
H        4.39234519       2.25954637       0.19633557
H        2.98601644       1.36552511       0.48141187
C        9.31206798      10.68199806      -9.19072323
C        9.93371002      11.52523816      -9.78817056
Br      10.93885262      12.88868608     -10.75419236
Cl      -5.28997693      -3.66077333      -1.30950100
C       -3.82138727      -3.09657841      -2.02718655
C       -2.99074608      -2.28235836      -1.25636800
C       -1.79791050      -1.79791050      -1.79791050
C       -1.43287010      -2.08589541      -3.12411259
C       -2.25166874      -2.94888198      -3.86361275
C       -3.45508760      -3.43771816      -3.33474469
C       -4.28049011      -4.26400610      -4.16568936
C       -4.99374278      -4.92233425      -4.87279207
C       -5.93377358      -5.71043437      -5.78842281
C       -6.69542932      -6.27809202      -6.52341708
C       -7.61896876      -6.90969063      -7.41931985
C       -7.11431937      -7.52554003      -8.57353383
C       -7.97020871      -8.10419861      -9.51921166
N       -7.41242532      -8.81373452     -10.59544687
C       -9.34619950      -8.14052794      -9.23557888
C       -9.86248699      -7.53641976      -8.08699802
C       -8.99928427      -6.91538824      -7.18343442
Cl      -9.69357008      -6.17511275      -5.78327206
N       -0.18153395      -1.72123556      -3.64806333
H       -3.27200521      -2.03144456      -0.23698615
H       -1.95114598      -3.24217757      -4.86773830
H       -6.03885705      -7.55029465      -8.73859945
H       -6.52254375      -8.45296898     -10.92498076
H       -8.07344088      -8.97315351     -11.35327539
H      -10.93174436      -7.55167051      -7.89257080
H       -0.15276398      -1.64294259      -4.65984941
H        0.22425422      -0.91131549      -3.18306841
C      -10.27042470      -8.77495467     -10.13940990
C      -11.04446330      -9.30628705     -10.89636839
Br     -12.29601825     -10.16540658     -12.12030623
Cl      -5.70887867       2.00080606       2.55056653
C       -4.01491990       2.34656953       2.58366279
C       -3.17400582       1.55879783       1.79666879
C       -1.79791050       1.79791050       1.79791050
C       -1.23555300       2.79848418       2.60884092
C       -2.10049767       3.61413819       3.34952760
C       -3.48347874       3.38159803       3.36247367
C       -4.30761593       4.21045456       4.19211508
C       -4.99566881       4.87597056       4.91722972
C       -5.86826160       5.68030971       5.88405945
C       -6.54242640       6.27091945       6.68359258
C       -7.33046958       6.94321549       7.67429417
C       -6.86900208       8.16869166       8.17569950
C       -7.56058848       8.84322368       9.18980683
N       -7.12602791      10.12281102       9.57276779
C       -8.78554107       8.31033561       9.62642966
C       -9.26054167       7.09361984       9.13174325
C       -8.52917136       6.40761659       8.16131898
Cl      -9.15915079       4.90133073       7.59147337
N        0.12367518       3.14438287       2.53012516
H       -3.59223090       0.76544813       1.18275690
H       -1.69218147       4.44037440       3.92850598
H       -5.95519077       8.60052667       7.77203371
H       -6.12261734      10.26499029       9.51288586
H       -7.50992736      10.42332042      10.46662200
H      -10.19805017       6.68177013       9.49616536
H        0.49642739       3.58850202       3.36348135
H        0.71059635       2.38046784       2.20025819
C       -9.57310242       8.98863305      10.62305381
C      -10.23268505       9.55670716      11.45772653
Br     -11.29917437      10.47523495      12.80732174
Cl       1.12698177      -4.32014286       4.81312662
C        1.94822291      -3.38184271       3.61508661
C        1.17735649      -2.56779557       2.78432038
C        1.79791050      -1.79791050       1.79791050
C        3.18809608      -1.85474843       1.60003358
C        3.95048617      -2.63504276       2.47863453
C        3.34026226      -3.41778537       3.46950281
C        4.17098242      -4.24488436       4.29431878
C        4.85966541      -4.96975565       4.95944803
C        5.72505183      -5.93936856       5.76821037
C        6.39545927      -6.74035281       6.36112634
C        7.19297151      -7.72739735       7.02761037
C        8.57605940      -7.51641617       7.12091767
C        9.41718827      -8.47276864       7.70366208
N       10.77549083      -8.16330717       7.88280872
C        8.82890415      -9.60968238       8.28371980
C        7.45206035      -9.83019758       8.20364683
C        6.63617668      -8.89241326       7.56951699
Cl       4.94017564      -9.22088554       7.49089370
N        3.84884333      -0.99589711       0.70609241
H        0.09839706      -2.53211194       2.90992692
H        5.03514034      -2.63742042       2.38850108
H        9.00305652      -6.59491619       6.72977844
H       11.17132582      -7.56302202       7.16614564
H       11.35044640      -8.98337352       8.06604986
H        7.01391304     -10.72591230       8.63616031
H        4.74380357      -1.33964954       0.37210288
H        3.24965399      -0.67076823      -0.05029254
C        9.63439225     -10.59938303       8.95101398
C       10.30898855     -11.42825733       9.50987287
Br      11.39975369     -12.76847696      10.41350041
C       -0.00445707       0.01189536      -1.78238275
H       -0.66409135       0.67374010      -2.43557963
H        0.65740317      -0.63156657      -2.45157240
C       -0.90989263      -0.90692880      -0.91072765
C        0.90977584       0.90977584      -0.90977584
C       -0.00465871       1.77757030       0.00794375
H       -0.66225468       2.44313916      -0.64384735
H        0.64322798       2.43503045       0.67728295
C       -1.78241447       0.00034974      -0.00472694
H       -2.45427497      -0.65498947       0.64260836
H       -2.43311707       0.67328779      -0.65473579
C       -0.91132561       0.90220522       0.91563759
C       -0.01476271      -0.02253852       1.78660255
H       -0.67934791      -0.69751639       2.42135241
H        0.63392994       0.61504881       2.47327442
C        0.01484550      -1.77751727      -0.01636693
H        0.67870853      -2.42144646      -0.68295456
H       -0.62264859      -2.45592969       0.64226336
C        1.78714474       0.01002794       0.00389507
H        2.44202412       0.67113390       0.66197326
H        2.45385902      -0.65136977      -0.64189061
C        0.91606151      -0.90478549       0.90901405
