149
Properties=species:S:1:pos:R:3 pbc="F F F"
C        0.00000000       0.00000000       0.00000000
N        4.71224512       2.77666868      -3.51796030
C        3.39217625       3.38588503      -3.36209032
H        3.53713454       4.34572483      -2.85026192
C        2.50452601       2.50527175      -2.49888077
C        1.99732507       2.98630498      -1.27976882
C        1.19010161       2.17800194      -0.47437326
C        0.88181454       0.88181454      -0.88181454
C        1.37387649       0.38415193      -2.08529441
C        2.18305807       1.19166557      -2.88782133
C        2.82099916       3.64433169      -4.66289702
C        2.35022899       3.85734614      -5.73503559
C        1.80911385       4.10219034      -6.96737877
C        1.33834367       4.31520480      -8.03951734
C        0.76716658       4.57365145      -9.34032403
H        1.56639197       4.48920333     -10.08695267
C       -0.32951516       3.57533542      -9.68682855
C       -0.20649125       2.76377385     -10.82726451
C       -1.19735410       1.83323234     -11.15216310
C       -2.32294251       1.70827737     -10.34151097
C       -2.46800105       2.50455190      -9.20847949
C       -1.47616758       3.43301607      -8.88293232
N        0.26796968       5.94541670      -9.41226120
H        5.11960966       2.64839381      -2.59442055
H        5.31493725       3.42847350      -4.01518336
H        2.22805011       3.99576857      -0.94607897
H        0.80901810       2.56788042       0.46588556
H        1.13922271      -0.62646421      -2.40803028
H        2.57295212       0.79356234      -3.82383641
H        0.66954399       2.84268870     -11.46829524
H       -1.07864428       1.20952506     -12.03436267
H       -3.34177132       2.40671059      -8.56956165
H       -1.59760091       4.03659597      -7.98519728
H       -0.45922308       6.06707241      -8.71128267
H       -0.18728988       6.07269790     -10.31406877
C       -3.34145918       0.74638727     -10.67466442
C       -4.19446689      -0.05919568     -10.95368045
Br      -5.57370822      -1.36175519     -11.40482576
N       -2.63752953      -4.57942627      -3.78991830
C       -3.36756059      -3.37468419      -3.39790683
H       -3.59509953      -2.82060587      -4.31741589
C       -2.50116127      -2.50060224      -2.50691503
C       -2.15180645      -1.20073305      -2.91085936
C       -1.34512682      -0.39505926      -2.10229073
C       -0.88181454      -0.88181454      -0.88181454
C       -1.21472373      -2.16672014      -0.46187896
C       -2.01828066      -2.97212474      -1.27213957
C       -4.61327771      -3.74593148      -2.76901867
C       -5.64001087      -4.05191741      -2.25068244
C       -6.82016393      -4.40362537      -1.65489366
C       -7.84689709      -4.70961130      -1.13655742
C       -9.09261420      -5.08085860      -0.50766927
H       -9.28064559      -6.14018630      -0.72171607
C       -9.04428077      -4.89100716       1.00263912
C       -9.25274994      -5.98772762       1.85593045
C       -9.19855792      -5.83340669       3.24392326
C       -8.93923630      -4.57955515       3.79194562
C       -8.73320414      -3.47771899       2.96589279
C       -8.78527803      -3.63297161       1.57846883
N      -10.20105336      -4.33029701      -1.09429720
H       -1.78843651      -4.29871532      -4.27527219
H       -3.20026295      -5.09709300      -4.46123815
H       -2.50458205      -0.80459970      -3.86071590
H       -1.08460449       0.60688106      -2.43328954
H       -0.85503537      -2.55342620       0.48767280
H       -2.26761910      -3.98005088      -0.94268089
H       -9.44953324      -6.97627722       1.44528253
H       -9.35464094      -6.69648538       3.88588287
H       -8.52478527      -2.49839408       3.38867843
H       -8.60640237      -2.76462522       0.94683525
H      -10.04438769      -3.33742543      -0.93731888
H      -11.05063081      -4.56452389      -0.58432210
C       -8.87947601      -4.42218967       5.22207317
C       -8.82942678      -4.29039609       6.41980500
Br      -8.74850139      -4.07729701       8.35643606
N       -4.62010081       2.66878218       3.71799110
C       -3.39441487       3.38272084       3.36301590
H       -3.69048251       4.26347719       2.77916159
C       -2.50515287       2.50465779       2.49886787
C       -2.17301339       2.89886692       1.19151855
C       -1.36549696       2.09077149       0.38620835
C       -0.88181454       0.88181454       0.88181454
C       -1.19870277       0.47093874       2.17368131
C       -2.00834984       1.27775541       2.97643973
C       -2.73099501       3.83344200       4.56379087
C       -2.18419737       4.20493111       5.55348223
C       -1.55569434       4.63193010       6.69105852
C       -1.00889670       5.00341922       7.68074989
C       -0.34547684       5.45414037       8.88152486
H       -1.05491710       5.37333255       9.71429831
C        0.88042947       4.60974472       9.20333355
C        0.95629739       3.91724488      10.42359963
C        2.06812733       3.12734207      10.72882661
C        3.11678272       3.02568479       9.81794375
C        3.06507639       3.70598754       8.60411919
C        1.95244625       4.49367119       8.29855587
N        0.00815541       6.86756382       8.76623916
H       -5.09886450       2.40323844       2.86032109
H       -5.23828181       3.30874666       4.21156564
H       -2.54202006       3.83954485       0.78833273
H       -1.12135262       2.41250862      -0.62284827
H       -0.82674590      -0.47167522       2.56571809
H       -2.26074008       0.94657095       3.98303984
H        0.14308621       3.97930531      11.14430884
H        2.10308159       2.59341328      11.67491176
H        3.87828318       3.62520704       7.88757705
H        1.92084320       5.00627991       7.33875563
H        0.64674680       6.98311257       7.98276623
H        0.53231244       7.13443006       9.59735918
C        4.26014127       2.20832772      10.13140607
C        5.21770407       1.52379117      10.39393076
Br       6.76600211       0.41695347      10.81841099
N        2.75280437      -4.69643027       3.55763946
C        3.36507849      -3.37838778       3.39668534
H        3.41766849      -2.92211260       4.39334020
C        2.50045124      -2.50133146       2.50689583
C        1.94815268      -1.30934265       3.00590353
C        1.14180924      -0.50341782       2.19724974
C        0.88181454      -0.88181454       0.88181454
C        1.41780274      -2.05887577       0.36664433
C        2.22084571      -2.86509464       1.17660462
C        4.70966415      -3.52699384       2.89156987
C        5.81788581      -3.64947652       2.47524839
C        7.09170380      -3.79026121       1.99671794
C        8.19992546      -3.91274389       1.58039646
C        9.54451112      -4.06134995       1.07528099
H        9.83887872      -5.11161612       1.19205313
C        9.64103913      -3.69022019      -0.39861051
C       10.07895394      -4.64127076      -1.33567758
C       10.16055638      -4.32115462      -2.69366966
C        9.80866563      -3.04517611      -3.12699592
C        9.37554154      -2.08539642      -2.21590762
C        9.29203099      -2.40659533      -0.85884551
N       10.47793400      -3.27166403       1.87604954
H        1.82654737      -4.57497291       3.96090374
H        3.29781089      -5.22834728       4.23243593
H        2.14063350      -0.99865409       4.03061005
H        0.72254960       0.41388065       2.60234402
H        1.21729117      -2.36107742      -0.65757982
H        2.62965874      -3.78973124       0.77096089
H       10.35121037      -5.64543326      -1.01611569
H       10.49403097      -5.07418783      -3.40297534
H        9.09432052      -1.09010062      -2.54992022
H        8.93657422      -1.64960943      -0.16199131
H       10.21647251      -2.29057992       1.81207957
H       11.40157952      -3.34415426       1.45374303
C        9.88908317      -2.71739560      -4.52688625
C        9.95643286      -2.44287941      -5.69929441
Br      10.06533162      -1.99900996      -7.59497924
