197
Properties=species:S:1:pos:R:3 pbc="F F F"
C        0.00000000       0.00000000       0.00000000
O        2.70122979       4.54145130      -3.81895651
C        3.39878523       3.38193201      -3.36161231
H        4.20649720       3.76496839      -2.72451887
C        2.50136758       2.51087545      -2.49549325
C        3.06601872       1.71332640      -1.48592711
C        2.25967513       0.90506123      -0.67987742
C        0.88178759       0.88178759      -0.88178759
C        0.30259388       1.65425147      -1.88483256
C        1.10970030       2.46167217      -2.68970280
C        3.99810454       2.66964769      -4.55613016
C        5.38657030       2.54365763      -4.67944889
C        5.95489535       1.91155775      -5.79333629
C        5.16249318       1.36742911      -6.82029509
C        3.77044947       1.49169051      -6.67948978
C        3.19739094       2.13972388      -5.57605112
C        5.77455261       0.71299549      -8.00339563
C        5.20223325       0.81873404      -9.28383376
C        5.79579330       0.22308745     -10.40693449
C        6.99984125      -0.48175916     -10.29437182
C        7.57407085      -0.60097283      -9.02229388
C        6.96552631      -0.02345346      -7.90020886
C        7.64569751      -1.09516517     -11.52206192
H        7.41138166      -0.45734120     -12.38355388
C        7.20808806      -2.51994929     -11.81904086
C        6.50351482      -2.81505290     -12.99764120
C        6.13183466      -4.12922648     -13.29513292
C        6.45890248      -5.15844068     -12.41546362
C        7.15413044      -4.88701968     -11.24020874
C        7.52805659      -3.57423001     -10.94595660
Br       5.96266868      -6.93644133     -12.82217066
O        9.07092273      -1.05365683     -11.40663285
H        2.26148522       4.91907309      -3.03944834
H        4.14215719       1.71360630      -1.32311092
H        2.71576038       0.29666663       0.09665019
H       -0.77094518       1.63286608      -2.05270276
H        0.64470981       3.05009337      -3.47907558
H        6.04743271       2.95298566      -3.91875617
H        7.04009689       1.87127949      -5.85701517
H        3.10063473       1.08155735      -7.43250439
H        2.11531454       2.23395342      -5.52527366
H        4.28921621       1.39034253      -9.43237535
H        5.31261419       0.33585433     -11.37554769
H        8.51158904      -1.13704631      -8.89567419
H        7.44792019      -0.16144950      -6.93449361
H        6.24327509      -2.02438365     -13.69833337
H        5.59064355      -4.33892206     -14.21433128
H        7.41150290      -5.68513350     -10.54893149
H        8.07793618      -3.37676111     -10.02758044
H        9.42031907      -1.73937396     -11.99953486
O       -4.13789897      -2.62086845      -4.30287019
C       -3.35955361      -3.39432891      -3.38844703
H       -2.68684898      -3.99180603      -4.01732946
C       -2.49751403      -2.49870685      -2.51151539
C       -1.27576166      -2.97888432      -2.01062624
C       -0.46933217      -2.17290628      -1.20237534
C       -0.88178759      -0.88178759      -0.88178759
C       -2.09472982      -0.39030848      -1.35663961
C       -2.89973222      -1.19693333      -2.16440971
C       -4.28219342      -4.31921863      -2.62247034
C       -4.15408347      -5.70726224      -2.74833111
C       -5.01911258      -6.57371788      -2.06695894
C       -6.03568940      -6.09210659      -1.22242139
C       -6.14711447      -4.69750671      -1.09700857
C       -5.29603189      -3.82592193      -1.79121213
C       -6.95638074      -7.01782832      -0.51673467
C       -8.30821325      -6.69364972      -0.30293808
C       -9.18513099      -7.58044868       0.33976443
C       -8.74675487      -8.83756019       0.77186115
C       -7.40011039      -9.16736552       0.57208400
C       -6.52309038      -8.26917147      -0.05001986
C       -9.71308409      -9.79799682       1.43848665
H      -10.70761233      -9.63471323       1.00473123
C       -9.79626006      -9.66067481       2.94975523
C      -10.99350795      -9.25328079       3.56068562
C      -11.08790351      -9.16209587       4.95225828
C       -9.98542542      -9.47457429       5.74407429
C       -8.78835307      -9.87737402       5.15840759
C       -8.69646559      -9.97157997       3.76826237
Br     -10.11615468      -9.35843517       7.62619185
O       -9.38024684     -11.14867679       1.10502488
H       -3.52682277      -1.98423963      -4.70894424
H       -0.94522253      -3.98914518      -2.24450669
H        0.47292803      -2.56250725      -0.82619760
H       -2.42567502       0.61306927      -1.10201791
H       -3.85200783      -0.80439894      -2.51747199
H       -3.39041006      -6.13453916      -3.39422532
H       -4.89854332      -7.64293068      -2.22691754
H       -6.90463944      -4.26021342      -0.44984360
H       -5.43898688      -2.75354847      -1.68200628
H       -8.70895046      -5.74660625      -0.65637738
H      -10.22214588      -7.28131958       0.47944926
H       -7.02350453     -10.13663927       0.88992689
H       -5.48414372      -8.57215466      -0.16466593
H      -11.86601351      -9.00933753       2.95812623
H      -12.02425278      -8.84912225       5.40732226
H       -7.92398695     -10.12155333       5.77023939
H       -7.75715871     -10.29508786       3.32349106
H       -9.76582515     -11.71140540       1.79675058
O       -4.36850551       2.63137302       4.06175908
C       -3.35938385       3.38967751       3.39326819
H       -2.71903708       3.78402155       4.19292583
C       -2.49954545       2.49679113       2.51139970
C       -1.16093828       2.84289649       2.26143746
C       -0.35416264       2.03715455       1.45329660
C       -0.88178759       0.88178759       0.88178759
C       -2.20922341       0.52675978       1.10569471
C       -3.01444020       1.33297599       1.91365908
C       -4.01730466       4.54245411       2.66412362
C       -3.72430738       5.86346182       3.02190762
C       -4.34699768       6.93862541       2.37416631
C       -5.27437908       6.74059990       1.33523840
C       -5.55200706       5.41050447       0.97911824
C       -4.94566357       4.33077436       1.63672803
C       -5.93972182       7.88574729       0.66547462
C       -7.27263123       7.80911038       0.22305944
C       -7.91026248       8.90081965      -0.38526688
C       -7.24400665      10.12045529      -0.55200803
C       -5.91321842      10.20530214      -0.12312865
C       -5.27379978       9.10520842       0.46327351
C       -7.95543188      11.30144128      -1.18427890
H       -9.01843600      11.23886546      -0.91970712
C       -7.81870225      11.38410660      -2.69562922
C       -8.94941334      11.25545262      -3.51876284
C       -8.83617599      11.36885816      -4.90729305
C       -7.59134764      11.60883448      -5.48425669
C       -6.45747250      11.73643109      -4.68658409
C       -6.57253243      11.62656672      -3.29931597
Br      -7.44021454      11.76972980      -7.36154634
O       -7.49968119      12.52581218      -0.60159462
H       -3.92015095       1.85799765       4.44185805
H       -0.73779391       3.74800417       2.69307632
H        0.67923582       2.32157099       1.27344164
H       -2.62858816      -0.36875018       0.65478568
H       -4.05441408       1.05037798       2.06908670
H       -3.02059513       6.07474173       3.82383769
H       -4.10975440       7.94426825       2.71436889
H       -6.25085675       5.18863335       0.17520636
H       -5.21318284       3.31869365       1.34266513
H       -7.84789046       6.89756796       0.36647567
H       -8.94337905       8.78939089      -0.70875373
H       -5.36414243      11.13756832      -0.23149384
H       -4.23435219       9.22348534       0.76312677
H       -9.93035110      11.07206671      -3.08519301
H       -9.72328618      11.27069206      -5.52792547
H       -5.48301453      11.92257410      -5.13028774
H       -5.67949488      11.73596573      -2.68670510
H       -7.69265538      13.23013210      -1.24230750
O        2.67844156      -3.88110326       4.50209278
C        3.38612921      -3.39612708       3.36007326
H        3.63226088      -4.29054296       2.77318062
C        2.49568620      -2.51098717       2.50106290
C        2.72052198      -2.42814586       1.11660438
C        1.91489997      -1.62012832       0.30958550
C        0.88178759      -0.88178759       0.88178759
C        0.64942902      -0.93896379       2.25328509
C        1.45537240      -1.74700582       3.05869704
C        4.66643039      -2.73351054       3.82394146
C        5.90874351      -3.25540830       3.44552501
C        7.10071644      -2.66851925       3.89055371
C        7.10213624      -1.53061264       4.71746850
C        5.84904313      -1.01086928       5.08171735
C        4.65333658      -1.60548035       4.65434902
C        8.36999557      -0.92525360       5.19569456
C        8.47745210      -0.35184622       6.47550273
C        9.68361499       0.19570811       6.93790836
C       10.83623672       0.16802419       6.14424137
C       10.73842448      -0.39265156       4.86431587
C        9.52586928      -0.91778949       4.39862294
C       12.14086035       0.73688637       6.66862028
H       12.16610179       0.58324403       7.75473659
C       12.35267517       2.21097976       6.36548422
C       12.42364377       3.14739231       7.40985166
C       12.65663067       4.49891362       7.14002405
C       12.81759956       4.92560754       5.82393340
C       12.74768329       4.01420530       4.77384151
C       12.51851486       2.66373274       5.04500107
Br      13.14029898       6.75224785       5.46034688
O       13.24880782      -0.01294612       6.16214481
H        1.82920047      -4.21835032       4.17245586
H        3.53035544      -2.99158128       0.65693768
H        2.10426733      -1.57097833      -0.75946884
H       -0.14946275      -0.35783180       2.70625461
H        1.27083544      -1.77154194       4.13150138
H        5.96676013      -4.13876177       2.81365264
H        8.03846614      -3.13432023       3.59560517
H        5.78021847      -0.12489847       5.70957951
H        3.70800782      -1.18177263       4.98476118
H        7.62237771      -0.34236997       7.14718642
H        9.71354924       0.62642802       7.93689498
H       11.61343079      -0.43651063       4.22027548
H        9.50430238      -1.32644696       3.39021496
H       12.30447336       2.83141623       8.44416767
H       12.71264671       5.20838409       7.96179015
H       12.87123683       4.34053933       3.74460339
H       12.47375657       1.96044685       4.21544579
H       14.02758998       0.56514806       6.21803806
