69
Properties=species:S:1:pos:R:3 pbc="F F F"
C        0.00000000       0.00000000       0.00000000
C        2.07325559      -1.76668820      -2.15728281
O        1.07800843      -0.82443657      -2.56332770
C        1.39000490       0.43476078      -2.11522244
C        0.88703283       0.88703283      -0.88703283
C        1.17493144       2.17946338      -0.43878966
C        1.94875376       3.03430125      -1.22334151
C        2.42359119       2.60351865      -2.46225966
C        2.13659538       1.31134673      -2.91343646
H        1.63313519      -2.76599898      -2.22406185
H        2.40598417      -1.61185587      -1.12476331
H        2.93273656      -1.72956622      -2.83310066
H        0.79210071       2.53212914       0.51609230
H        2.16830666       4.04130755      -0.87651735
H        3.00759988       3.28644202      -3.07507894
C        2.61395854       0.93529424      -4.21892829
C        3.01375019       0.62035027      -5.31227770
Br       3.66017948       0.11111252      -7.08013123
C       -2.46391779       1.73245323      -1.73238564
O       -1.43095308       0.95086315      -2.33680963
C       -1.56495088      -0.37332444      -2.00171279
C       -0.88703283      -0.88703283      -0.88703283
C       -0.99388403      -2.24143817      -0.55786227
C       -1.76084449      -3.09431201      -1.35124001
C       -2.40999007      -2.59768289      -2.48169653
C       -2.30432987      -1.24334161      -2.81370708
H       -2.13530281       2.77590869      -1.73180394
H       -2.66357905       1.44005123      -0.69536379
H       -3.38479768       1.66797072      -2.31944405
H       -0.47484372      -2.64276448       0.30947066
H       -1.83965392      -4.14883916      -1.09763848
H       -2.98735547      -3.27664793      -3.10511743
C       -2.95788772      -0.79450244      -4.01579091
C       -3.50524242      -0.41859964      -5.02253612
Br      -4.39026867       0.18920341      -6.65035797
C       -2.11271665      -1.76714088       2.11827443
O       -1.11222145      -0.83917601       2.54385412
C       -1.40697470       0.42756684       2.10544658
C       -0.88703283       0.88703283       0.88703283
C       -1.15735514       2.18676212       0.44906721
C       -1.93047189       3.04148384       1.23444079
C       -2.42217489       2.60311149       2.46408312
C       -2.15278248       1.30362047       2.90497561
H       -1.68336672      -2.77149103       2.17932237
H       -2.43336791      -1.59856387       1.08408758
H       -2.97860045      -1.72808832       2.78575887
H       -0.76131961       2.54510430      -0.49828637
H       -2.13635523       4.05410421       0.89567212
H       -3.00548168       3.28573509       3.07790406
C       -2.64713684       0.91932895       4.20171529
C       -3.06115861       0.59748479       5.28773477
Br      -3.73059681       0.07709002       7.04373642
C        1.62402008       1.71120513       2.55103525
O        0.70702639       0.63129857       2.74117174
C        1.20584553      -0.52937648       2.20476612
C        0.88703283      -0.88703283       0.88703283
C        1.36586916      -2.08300583       0.34430948
C        2.14788423      -2.93810763       1.12040465
C        2.44026095      -2.60580749       2.44330105
C        1.96204473      -1.41033383       2.98900000
H        1.06762737       2.64567830       2.66924899
H        2.07668757       1.71089838       1.55310242
H        2.40802413       1.68533933       3.31358619
H        1.12623797      -2.36125366      -0.67935408
H        2.51601492      -3.87072680       0.69938985
H        3.03265737      -3.29085575       3.04560771
C        2.25635286      -1.13948948       4.37233874
C        2.50283592      -0.91265733       5.53088493
Br       2.90137819      -0.54588892       7.40415613
