82
Properties=species:S:1:pos:R:3 pbc="F F F"
C        2.98315961      -0.85678418      -3.06718684
O        1.98791245       0.08546745      -3.47323172
C        2.29990892       1.34466481      -3.02512646
C        1.79693685       1.79693685      -1.79693685
C        2.08483546       3.08936740      -1.34869368
C        2.85865778       3.94420527      -2.13324553
C        3.33349521       3.51342267      -3.37216369
C        3.04649940       2.22125075      -3.82334048
Br       3.67587263       1.72544926      -5.54454914
H        2.54303922      -1.85609496      -3.13396587
H        3.31588820      -0.70195185      -2.03466733
H        3.84264058      -0.81966219      -3.74300468
H        1.70200473       3.44203316      -0.39381173
H        3.07821069       4.95121157      -1.78642137
H        3.91750390       4.19634604      -3.98498296
C       -0.57055594      -4.31516577      -0.30784056
O       -1.78793852      -3.57667318      -0.18199992
C       -2.18530951      -3.08440584      -1.39998484
C       -1.79693685      -1.79693685      -1.79693685
C       -2.22361411      -1.27690699      -3.02237544
C       -3.05695724      -2.03067024      -3.84848112
C       -3.47591555      -3.29849324      -3.44467277
C       -3.05112676      -3.82094687      -2.21901701
Br      -3.70932667      -5.52724421      -1.70930015
H       -0.12013424      -4.38727341       0.68649752
H        0.15240658      -3.82872860      -0.97228166
H       -0.77432748      -5.33016554      -0.66149006
H       -1.91959880      -0.28125581      -3.33699501
H       -3.39266539      -1.62376190      -4.79941634
H       -4.14342649      -3.86811891      -4.08728750
C       -0.68294861       4.30490666       0.20570701
O       -1.88208519       3.53017628       0.13435016
C       -2.23203351       3.06164952       1.37601716
C       -1.79693685       1.79693685       1.79693685
C       -2.17518517       1.30007743       3.04763394
C       -3.00649012       2.05369848       3.87591999
C       -3.47178431       3.29775175       3.44954551
C       -3.09549704       3.79697536       2.19861824
Br      -3.81506322       5.46965212       1.66115569
H       -0.26207305       4.36133024      -0.80249316
H        0.07128419       3.85726987       0.86261801
H       -0.90541740       5.32349419       0.53707149
H       -1.83483034       0.32233964       3.38067964
H       -3.30451947       1.66464695       4.84667721
H       -4.13722533       3.86675313       4.09485445
C        3.48190181       0.79529431       2.50695478
O        2.44504198       0.06698243       3.16855208
C        2.52644566      -1.27072531       2.87252922
C        1.79693685      -1.79693685       1.79693685
C        1.85046469      -3.16376508       1.50866677
C        2.61558340      -4.01572160       2.30480360
C        3.31632423      -3.50514334       3.39761399
C        3.26407627      -2.13832854       3.68868582
Br       4.19485364      -1.52532966       5.22568773
H        3.18637652       1.84832402       2.48285763
H        3.63854681       0.46414434       1.47420121
H        4.41885474       0.71945378       3.06658211
H        1.29122243      -3.57509241       0.67153478
H        2.65296737      -5.07969451       2.08318175
H        3.89199202      -4.18255826       4.02428262
C       -0.00445707       0.01189536      -1.78238275
H       -0.66409135       0.67374010      -2.43557963
H        0.65740317      -0.63156657      -2.45157240
C       -0.90989263      -0.90692880      -0.91072765
C        0.90977584       0.90977584      -0.90977584
C       -0.00465871       1.77757030       0.00794375
H       -0.66225468       2.44313916      -0.64384735
H        0.64322798       2.43503045       0.67728295
C       -1.78241447       0.00034974      -0.00472694
H       -2.45427497      -0.65498947       0.64260836
H       -2.43311707       0.67328779      -0.65473579
C       -0.91132561       0.90220522       0.91563759
C       -0.01476271      -0.02253852       1.78660255
H       -0.67934791      -0.69751639       2.42135241
H        0.63392994       0.61504881       2.47327442
C        0.01484550      -1.77751727      -0.01636693
H        0.67870853      -2.42144646      -0.68295456
H       -0.62264859      -2.45592969       0.64226336
C        1.78714474       0.01002794       0.00389507
H        2.44202412       0.67113390       0.66197326
H        2.45385902      -0.65136977      -0.64189061
C        0.91606151      -0.90478549       0.90901405
