194
Properties=species:S:1:pos:R:3 pbc="F F F"
C        1.82897011       1.82897011      -1.82897011
C        2.75034485       0.94842257      -2.65564177
S        3.93866229       1.87126190      -3.70593986
C        2.81051053       2.94287482      -4.68876214
C        1.91964840       2.15799334      -5.67477693
H        1.56035594       1.26365312      -5.15635362
C        0.63641895       2.96356017      -6.07034908
H        0.06252427       3.12310068      -5.14761921
N        0.95469877       4.28552973      -6.61715060
C        0.85299275       5.44302845      -5.88625311
O        0.42824314       5.47981126      -4.73657704
C        1.31358853       6.67373080      -6.61719247
C       -0.28042175       2.22096458      -7.06456526
S       -0.85845779       0.59165264      -6.46609801
C       -1.67530859      -0.01094226      -7.98293668
C       -2.98850436       0.70442915      -8.24066778
N        2.68085325       1.61618090      -6.81636336
C        3.21408637       2.35750543      -7.84413700
O        3.07087083       3.57004575      -7.96095997
C        3.96873675       1.54663869      -8.86271029
H        2.37326173       2.49232096      -1.15168359
H        1.12874501       2.40550241      -2.43810786
H        2.18025891       0.25810953      -3.28491439
H        3.35408554       0.32124088      -1.98888750
H        3.44768351       3.65151835      -5.22836438
H        2.21546662       3.52955770      -3.98516180
H        1.61009589       4.29550962      -7.40363180
H        1.48123087       6.47430660      -7.67922096
H        2.24505479       7.03083532      -6.17090537
H        0.54257268       7.44546044      -6.53358789
H        0.23395873       2.08411198      -8.02148261
H       -1.16160982       2.84215378      -7.25617688
H       -1.85088541      -1.08434924      -7.85131173
H       -0.98415443       0.09451812      -8.82661224
H       -2.86280916       1.77530431      -8.41891616
H       -3.71420991       0.54506494      -7.43806582
H        2.99199218       0.65613355      -6.72353952
H        3.70882580       1.91276878      -9.86429896
H        3.70083594       0.48960570      -8.81377247
H        5.04113145       1.66248124      -8.69928467
C       -3.59004094       0.18000780      -9.43930700
C       -4.09382783      -0.25919509     -10.44316735
Br      -4.90840863      -0.96934900     -12.06632463
C       -1.82897011      -1.82897011      -1.82897011
C       -0.99237964      -2.40187541      -2.96015415
S       -1.93706548      -3.41700471      -4.16179386
C       -2.70781603      -4.67393795      -3.06039352
C       -1.68851788      -5.64141271      -2.42248809
H       -0.82346046      -5.04998104      -2.10692117
C       -2.24874754      -6.30309246      -1.11848820
H       -2.43838800      -5.49058066      -0.40427551
N       -3.52445674      -6.98810113      -1.34482123
C       -4.73738543      -6.44697422      -0.99791466
O       -4.85572370      -5.37569415      -0.41321359
C       -5.92082348      -7.28225755      -1.40143078
C       -1.26628002      -7.28783526      -0.45099281
S        0.34170033      -6.54069316      -0.00030003
C        1.23724152      -8.04617268       0.51224532
C        0.75276587      -8.56340183       1.85404339
N       -1.12288339      -6.59146679      -3.39904733
C       -1.79921921      -7.63989764      -3.97661197
O       -2.95529847      -7.94427683      -3.70230125
C       -0.98365256      -8.43180645      -4.96262671
H       -2.64152988      -1.19040872      -2.18532767
H       -2.22045608      -2.59569889      -1.15620031
H       -0.15563128      -2.99265469      -2.57499686
H       -0.54460936      -1.58333309      -3.53627148
H       -3.42726920      -5.22541753      -3.67487952
H       -3.28681435      -4.13981333      -2.30355844
H       -3.52973924      -7.68073678      -2.09876130
H       -5.61716053      -8.27625202      -1.74134588
H       -6.45888581      -6.77918168      -2.20872800
H       -6.57980196      -7.40507597      -0.53674309
H       -1.08624897      -8.14451269      -1.10879166
H       -1.72769523      -7.67325477       0.46422917
H        2.30003730      -7.78647561       0.57036122
H        1.14020241      -8.80408635      -0.27309199
H       -0.29469555      -8.87470931       1.83799354
H        0.91273171      -7.84246571       2.66081314
H       -0.23561510      -6.32565008      -3.81040007
H       -1.18230301      -9.49958953      -4.80400101
H        0.08639478      -8.26707692      -4.82353199
H       -1.26970409      -8.15487037      -5.97832291
C        1.50158537      -9.74078042       2.20992120
C        2.12872170     -10.72683499       2.50796886
Br       3.14274811     -12.32120183       2.98988673
C       -1.82897011       1.82897011       1.82897011
C       -1.16541434       2.00487424       3.18412062
S       -2.15248117       2.97253945       4.39084343
C       -2.44038862       4.53679123       3.46496765
C       -1.15619500       5.36130534       3.23491834
H       -0.36034993       4.66363489       2.95637786
C       -1.30227016       6.34374552       2.02431253
H       -1.47421007       5.72725300       1.13178110
N       -2.45767161       7.23426656       2.16544093
C       -3.64433406       7.03236915       1.50557110
O       -3.82032960       6.12935718       0.69494467
C       -4.72253110       8.01689368       1.86508702
C       -0.04418773       7.19784891       1.76307146
S        1.46758055       6.21599411       1.45087930
C        2.69982043       7.56227531       1.43423095
C        2.60946279       8.39630107       0.16975430
N       -0.65458802       5.98438516       4.47442432
C       -1.24511412       7.03568313       5.13493156
O       -2.24530613       7.62198567       4.73458475
C       -0.53275649       7.45190750       6.39342173
H       -2.79722728       1.32576252       1.89427647
H       -1.92875790       2.76659066       1.27700672
H       -0.17609686       2.46201169       3.08517428
H       -0.99997808       1.02229831       3.64193754
H       -3.16677104       5.11302260       4.04777260
H       -2.92913871       4.27819333       2.52285408
H       -2.50247198       7.77003864       3.03672669
H       -4.32974883       8.84881356       2.45619604
H       -5.49917612       7.50703746       2.44058190
H       -5.15083074       8.42572430       0.94506597
H        0.13820287       7.86867422       2.60908197
H       -0.22605352       7.82594712       0.88472020
H        3.68880515       7.09666760       1.50821463
H        2.57148931       8.17485749       2.33360775
H        1.65315665       8.91559571       0.06897226
H        2.80929463       7.80962121      -0.73140573
H        0.06471838       5.46846368       4.96791995
H       -0.50405553       8.54843027       6.43340775
H        0.49696235       7.09016957       6.41100691
H       -1.07203785       7.06958720       7.26127232
C        3.61017199       9.43104126       0.20840458
C        4.44826594      10.29763617       0.24077420
Br       5.80339298      11.69884684       0.29311313
C        1.82897011      -1.82897011       1.82897011
C        2.74280865      -0.94803956       2.66356099
S        3.93056090      -1.87027493       3.71502822
C        2.80284193      -2.95116143       4.68814413
C        1.90420080      -2.17456101       5.67365687
H        1.54324624      -1.27952888       5.15758756
C        0.62281331      -2.98749629       6.06001860
H        0.05368819      -3.14548309       5.13407288
N        0.94451857      -4.31045492       6.60240562
C        0.85113430      -5.46515244       5.86598757
O        0.43160676      -5.49872702       4.71429766
C        1.31394089      -6.69703295       6.59353796
C       -0.30165530      -2.25333128       7.05343212
S       -0.88424111      -0.62394956       6.45958441
C       -1.71040023      -0.03164964       7.97543642
C       -3.02154585      -0.75391459       8.22422384
N        2.65798378      -1.63445255       6.82096117
C        3.18996232      -2.37795558       7.84781091
O        3.05158749      -3.59161722       7.95867184
C        3.93654405      -1.56828394       8.87325772
H        2.37915460      -2.48692753       1.15118415
H        1.12862650      -2.41125619       2.43247258
H        2.16692231      -0.26302191       3.29333861
H        3.34669934      -0.31527475       2.00223984
H        3.44075904      -3.65937297       5.22743423
H        2.21349025      -3.53734231       3.97935356
H        1.59649134      -4.32102582       7.39172015
H        1.47603348      -6.50156301       7.65716194
H        2.24892599      -7.04806825       6.14980124
H        0.54671317      -7.47176638       6.50314146
H        0.20790669      -2.11844433       8.01320230
H       -1.18092674      -2.87922587       7.23842170
H       -1.89013250       1.04154596       7.84775554
H       -1.02250103      -0.13779449       8.82168247
H       -2.89191025      -1.82500335       8.39831822
H       -3.74441413      -0.59420004       7.41913494
H        2.96528761      -0.67264707       6.73373057
H        3.67385314      -1.93996920       9.87207121
H        3.66419853      -0.51223260       8.82778299
H        5.01014727      -1.67869107       8.71405902
C       -3.63065181      -0.23743635       9.42248932
C       -4.14077806       0.19511417      10.42603665
Br      -4.96560904       0.89451178      12.04868783
C       -0.00445707       0.01189536      -1.78238275
H       -0.66409135       0.67374010      -2.43557963
H        0.65740317      -0.63156657      -2.45157240
C       -0.90989263      -0.90692880      -0.91072765
C        0.90977584       0.90977584      -0.90977584
C       -0.00465871       1.77757030       0.00794375
H       -0.66225468       2.44313916      -0.64384735
H        0.64322798       2.43503045       0.67728295
C       -1.78241447       0.00034974      -0.00472694
H       -2.45427497      -0.65498947       0.64260836
H       -2.43311707       0.67328779      -0.65473579
C       -0.91132561       0.90220522       0.91563759
C       -0.01476271      -0.02253852       1.78660255
H       -0.67934791      -0.69751639       2.42135241
H        0.63392994       0.61504881       2.47327442
C        0.01484550      -1.77751727      -0.01636693
H        0.67870853      -2.42144646      -0.68295456
H       -0.62264859      -2.45592969       0.64226336
C        1.78714474       0.01002794       0.00389507
H        2.44202412       0.67113390       0.66197326
H        2.45385902      -0.65136977      -0.64189061
C        0.91606151      -0.90478549       0.90901405
