186
Properties=species:S:1:pos:R:3 pbc="F F F"
C        1.82897011       1.82897011      -1.82897011
C        2.75034485       0.94842257      -2.65564177
S        3.93866229       1.87126190      -3.70593986
C        2.81051053       2.94287482      -4.68876214
C        1.91964840       2.15799334      -5.67477693
H        1.56035594       1.26365312      -5.15635362
C        0.63641895       2.96356017      -6.07034908
H        0.06252427       3.12310068      -5.14761921
N        0.95469877       4.28552973      -6.61715060
C        0.85299275       5.44302845      -5.88625311
O        0.42824314       5.47981126      -4.73657704
C        1.31358853       6.67373080      -6.61719247
C       -0.28042175       2.22096458      -7.06456526
S       -0.85845779       0.59165264      -6.46609801
C       -1.67530859      -0.01094226      -7.98293668
C       -2.98850436       0.70442915      -8.24066778
Br      -3.80364804      -0.00621549      -9.86494668
N        2.68085325       1.61618090      -6.81636336
C        3.21408637       2.35750543      -7.84413700
O        3.07087083       3.57004575      -7.96095997
C        3.96873675       1.54663869      -8.86271029
H        2.37326173       2.49232096      -1.15168359
H        1.12874501       2.40550241      -2.43810786
H        2.18025891       0.25810953      -3.28491439
H        3.35408554       0.32124088      -1.98888750
H        3.44768351       3.65151835      -5.22836438
H        2.21546662       3.52955770      -3.98516180
H        1.61009589       4.29550962      -7.40363180
H        1.48123087       6.47430660      -7.67922096
H        2.24505479       7.03083532      -6.17090537
H        0.54257268       7.44546044      -6.53358789
H        0.23395873       2.08411198      -8.02148261
H       -1.16160982       2.84215378      -7.25617688
H       -1.85088541      -1.08434924      -7.85131173
H       -0.98415443       0.09451812      -8.82661224
H       -2.86280916       1.77530431      -8.41891616
H       -3.71420991       0.54506494      -7.43806582
H        2.99199218       0.65613355      -6.72353952
H        3.70882580       1.91276878      -9.86429896
H        3.70083594       0.48960570      -8.81377247
H        5.04113145       1.66248124      -8.69928467
C       -1.82897011      -1.82897011      -1.82897011
C       -1.02299521      -2.30666056      -3.02475342
S       -1.97698916      -3.30961762      -4.22925727
C       -2.63320664      -4.65294094      -3.15599991
C       -1.53974691      -5.59802439      -2.61464737
H       -0.68884623      -4.98028011      -2.31123635
C       -2.00381492      -6.34660787      -1.31990542
H       -2.19597348      -5.57864584      -0.55862484
N       -3.25567409      -7.08202299      -1.51968202
C       -4.47409732      -6.61783486      -1.09034214
O       -4.61356381      -5.58214893      -0.44891870
C       -5.63556212      -7.49037273      -1.47857695
C       -0.94484301      -7.31210889      -0.74815619
S        0.64662208      -6.50889577      -0.33701917
C        1.63560879      -7.99095734       0.05866273
C        1.24222249      -8.59347393       1.39465886
Br       2.35284190     -10.15805705       1.75013199
N       -0.97889439      -6.47251191      -3.66199121
C       -1.63299431      -7.52470461      -4.25802989
O       -2.75873855      -7.89789902      -3.94523898
C       -0.83063946      -8.22871183      -5.31873443
H       -2.68698575      -1.21506612      -2.11521441
H       -2.15072678      -2.64458165      -1.17704685
H       -0.14166766      -2.87305217      -2.70856300
H       -0.64276566      -1.44111206      -3.58033621
H       -3.35536367      -5.20971275      -3.76248983
H       -3.19872617      -4.18381244      -2.34764752
H       -3.26554203      -7.73808615      -2.30560913
H       -5.30280513      -8.45130416      -1.88064915
H       -6.23549174      -6.97710437      -2.23419937
H       -6.24488262      -7.68564131      -0.59109709
H       -0.75744094      -8.12724317      -1.45486921
H       -1.34230162      -7.76204902       0.16762981
H        2.68667419      -7.68245501       0.07970374
H        1.53570654      -8.71518065      -0.75750182
H        0.21093143      -8.95468234       1.41233959
H        1.40768630      -7.90405915       2.22745199
H       -0.12626147      -6.14456803      -4.10083575
H       -0.97114496      -9.31119775      -5.20355083
H        0.23607088      -8.01838832      -5.22189668
H       -1.17878680      -7.91896452      -6.30514604
C       -1.82897011       1.82897011       1.82897011
C       -1.25644735       1.86229760       3.23566425
S       -2.26100768       2.81501026       4.43984611
C       -2.37213952       4.45596231       3.61404567
C       -1.02102931       5.19755931       3.53383006
H       -0.25652482       4.46394546       3.25989239
C       -1.00996077       6.26872094       2.39164649
H       -1.15759171       5.72916203       1.44649042
N       -2.10887334       7.23008265       2.51842311
C       -3.25479723       7.16174729       1.76572979
O       -3.43212288       6.33180729       0.88070127
C       -4.28652627       8.19599076       2.12199477
C        0.31949339       7.04381601       2.28078547
S        1.77929679       5.97708036       2.00150929
C        3.09876439       7.22700105       2.16844917
C        3.15906294       8.15009152       0.96556399
Br       4.60047737       9.44178519       1.21377534
N       -0.57048392       5.69563774       4.84727584
C       -1.13458760       6.73980540       5.54133581
O       -2.06007625       7.42417081       5.11762949
C       -0.48993044       7.01526714       6.87288813
H       -2.83160588       1.39509029       1.79057011
H       -1.82338817       2.80700271       1.34196440
H       -0.23353924       2.25109600       3.23864759
H       -1.19286581       0.84115744       3.63019068
H       -3.09824472       5.04279260       4.18652892
H       -2.80680337       4.29919509       2.62418766
H       -2.18085180       7.70673551       3.42165001
H       -3.88222991       8.95428741       2.79824112
H       -5.13652040       7.70643735       2.60383772
H       -4.61693940       8.69730734       1.20737427
H        0.48466835       7.63985094       3.18437073
H        0.24622306       7.74229908       1.44064481
H        4.04538907       6.68590601       2.27556014
H        2.94687438       7.78429680       3.09955351
H        2.25060190       8.74403288       0.83798034
H        3.38399735       7.61342739       0.03949082
H        0.07351051       5.09558400       5.34959177
H       -0.38918341       8.10138087       6.99532927
H        0.50848938       6.57838236       6.93432114
H       -1.11653901       6.61510385       7.67125451
C        1.82897011      -1.82897011       1.82897011
C        2.71748239      -0.94725545       2.68967136
S        3.90329883      -1.86753716       3.74502806
C        2.77762052      -2.97894367       4.68558331
C        1.85338698      -2.23011416       5.66891754
H        1.48680826      -1.33290820       5.16064622
C        0.57865056      -3.06720461       6.02447303
H        0.02544025      -3.21977121       5.08803270
N        0.91191900      -4.39320417       6.55225592
C        0.84629660      -5.53814720       5.79783051
O        0.44409831      -5.56082291       4.63971022
C        1.31660042      -6.77376850       6.51414288
C       -0.37089374      -2.36129348       7.01470836
S       -0.96875930      -0.73197019       6.43608198
C       -1.82551775      -0.17417202       7.94803156
C       -3.12934346      -0.91901458       8.16692145
Br      -3.98850007      -0.25523965       9.78834358
N        2.58235981      -1.69608895       6.83494874
C        3.11026428      -2.44684749       7.85861705
O        2.98821264      -3.66389606       7.94976784
C        3.82983215      -1.64162385       8.90662973
H        2.39859751      -2.46878804       1.14988073
H        1.12859322      -2.43021679       2.41354527
H        2.12245741      -0.28004850       3.32077693
H        3.32152294      -0.29609015       2.04660084
H        3.41800858      -3.68568507       5.22387259
H        2.20734805      -3.56311026       3.95972781
H        1.55243236      -4.40593890       7.35086605
H        1.46031088      -6.59167566       7.58277189
H        2.26301509      -7.10458866       6.07919173
H        0.56228125      -7.55815649       6.40118326
H        0.12261525      -2.23318675       7.98375132
H       -1.24343215      -3.00256631       7.17758667
H       -2.01918813       0.89806398       7.83332919
H       -1.14850337      -0.28277778       8.80270152
H       -2.98646487      -1.99055727       8.32731892
H       -3.84270810      -0.75796621       7.35366275
H        2.87667631      -0.72873513       6.76625381
H        3.55815979      -2.03178410       9.89594966
H        3.54262616      -0.58908768       8.87250028
H        4.90714841      -1.73404997       8.76169899
C       -0.00445707       0.01189536      -1.78238275
H       -0.66409135       0.67374010      -2.43557963
H        0.65740317      -0.63156657      -2.45157240
C       -0.90989263      -0.90692880      -0.91072765
C        0.90977584       0.90977584      -0.90977584
C       -0.00465871       1.77757030       0.00794375
H       -0.66225468       2.44313916      -0.64384735
H        0.64322798       2.43503045       0.67728295
C       -1.78241447       0.00034974      -0.00472694
H       -2.45427497      -0.65498947       0.64260836
H       -2.43311707       0.67328779      -0.65473579
C       -0.91132561       0.90220522       0.91563759
C       -0.01476271      -0.02253852       1.78660255
H       -0.67934791      -0.69751639       2.42135241
H        0.63392994       0.61504881       2.47327442
C        0.01484550      -1.77751727      -0.01636693
H        0.67870853      -2.42144646      -0.68295456
H       -0.62264859      -2.45592969       0.64226336
C        1.78714474       0.01002794       0.00389507
H        2.44202412       0.67113390       0.66197326
H        2.45385902      -0.65136977      -0.64189061
C        0.91606151      -0.90478549       0.90901405
