189
Properties=species:S:1:pos:R:3 pbc="F F F"
C        0.00000000       0.00000000       0.00000000
C        0.91682450       0.91682450      -0.91682450
C        1.47978864       2.09518523      -0.13591952
S        0.22319887       3.39116923       0.13023101
C        1.15784912       4.48513563       1.27009091
C        0.29047283       5.63856662       1.82174634
H       -0.14378467       6.17283547       0.96725453
N        1.10192135       6.58496696       2.57296084
C        0.86632352       7.94017255       2.49380928
O        0.05260147       8.45489662       1.73633802
C        1.74830410       8.75697853       3.39619862
C       -0.77651019       5.14510210       2.66030223
C       -1.65592884       4.73838344       3.35144882
C       -2.66675486       4.27089074       4.14587019
C       -3.54617351       3.86417208       4.83701678
C       -4.61315654       3.37070756       5.67557267
H       -5.32155328       2.86539536       5.01090762
N       -4.05150529       2.39265395       6.59447741
C       -4.46997396       1.08318243       6.61296951
O       -5.35982186       0.63887026       5.89757430
C       -3.72738743       0.20935934       7.58820745
C       -5.35445836       4.50529744       6.40417951
S       -6.72798973       3.95664582       7.49960678
C       -7.83299505       3.18978524       6.26026062
C       -9.05396168       2.60073119       6.94361893
H        0.32095491       1.21518942      -1.78437422
H        1.72476433       0.26075027      -1.25364932
H        2.29648966       2.54651143      -0.70800409
H        1.87649969       1.76876116       0.83095803
H        2.00921870       4.89579661       0.71572610
H        1.55400402       3.88050280       2.09446461
H        1.63831585       6.23537415       3.35495611
H        2.77206984       8.74220181       3.01322211
H        1.72472015       8.35948853       4.41409068
H        1.39020667       9.79039465       3.41838299
H       -3.30164767       2.68836935       7.20348600
H       -3.05911999       0.78942944       8.23011702
H       -3.13379283      -0.52012707       7.03034766
H       -4.45042091      -0.31081791       8.22232377
H       -5.75958802       5.22776453       5.68625432
H       -4.65377792       5.05594920       7.04358691
H       -7.30300010       2.39845676       5.72628878
H       -8.12580512       3.95448815       5.53308355
H       -9.65198980       3.35587694       7.46094734
H       -8.79675325       1.79116479       7.63298461
C       -9.92223591       2.01876946       5.95315419
C      -10.64941558       1.53137652       5.12363997
Br     -11.82520360       0.74330334       3.78238563
C       -0.91682450      -0.91682450      -0.91682450
C       -0.24227131      -2.24601639      -1.22260570
S        1.06473421      -2.06582999      -2.48304131
C        1.78727361      -3.75165228      -2.40851516
C        3.05720761      -3.88639999      -3.27810074
H        2.80374984      -3.56826512      -4.29728100
N        3.49885239      -5.27184100      -3.34093885
C        4.00008544      -5.80392848      -4.50884375
O        4.02264684      -5.21238784      -5.58141907
C        4.47877922      -7.22163166      -4.36623158
C        4.13095567      -3.05937919      -2.77986616
C        5.01595012      -2.37773993      -2.36921598
C        6.03318512      -1.59424654      -1.89720427
C        6.91817958      -0.91260728      -1.48655408
C        7.99192763      -0.08558648      -0.98831950
H        7.70225844       0.95155560      -1.18674849
N        8.08362258      -0.28070553       0.45041171
C        7.90713794       0.75224437       1.34037873
O        7.69678020       1.91281518       1.00893052
C        7.97704317       0.34209864       2.78709374
C        9.32400603      -0.36431568      -1.70634993
S       10.74631876       0.64793427      -1.12330234
C       10.14448326       2.31893076      -1.55994358
C       11.15152868       3.36704716      -1.12172642
H       -1.16769381      -0.34059557      -1.81222917
H       -1.82873985      -1.07636016      -0.33406392
H       -0.98656133      -2.94156930      -1.62287455
H        0.18524403      -2.68453129      -0.31501557
H        1.02475680      -4.45752039      -2.75652562
H        2.01568522      -3.99222999      -1.36349743
H        3.69954876      -5.74666298      -2.47161967
H        3.61863111      -7.88359339      -4.23608726
H        5.15248853      -7.31227152      -3.51033501
H        5.02231920      -7.51564629      -5.26889125
H        8.24045871      -1.21770489       0.79401050
H        8.29493689      -0.69750004       2.90237071
H        6.98750429       0.45936538       3.23739789
H        8.69618151       0.98285657       3.30452451
H        9.22063839      -0.21519962      -2.78736096
H        9.61284852      -1.41214866      -1.55928423
H        9.18836013       2.51155216      -1.06908017
H        9.98615702       2.36098842      -2.64274492
H       12.12032204       3.25218195      -1.61544379
H       11.28565143       3.38915212      -0.03623048
C       10.67235049       4.67413014      -1.48986000
C       10.27103875       5.76881214      -1.79817187
Br       9.62215161       7.53882035      -2.29668609
C       -0.91682450       0.91682450       0.91682450
C       -1.50347443       0.12870561       2.07871335
S       -2.88176772      -0.93994323       1.54231261
C       -3.15537072      -1.87846998       3.09599310
C       -4.19297488      -3.01031950       2.92463775
H       -5.11124681      -2.56776346       2.51831294
N       -4.51966262      -3.61389190       4.20815674
C       -5.80927232      -3.99926815       4.50268262
O       -6.77478071      -3.78369168       3.78007104
C       -5.94424819      -4.67414454       5.83898036
C       -3.72028086      -4.02987619       2.01788500
C       -3.33068147      -4.87020554       1.27052985
C       -2.88286609      -5.83610134       0.41150094
C       -2.49326670      -6.67643070      -0.33585422
C       -2.02057269      -7.69598738      -1.24260696
H       -2.02192621      -7.24748881      -2.24150294
N       -0.65162066      -8.02689416      -0.87805525
C        0.39843507      -7.85302571      -1.74830025
O        0.27489769      -7.44627417      -2.89735404
C        1.74581253      -8.19172969      -1.16869333
C       -2.93929800      -8.93018363      -1.26245480
S       -2.40103041     -10.28000464      -2.39197645
C       -2.50025770      -9.40742795      -3.99630019
C       -2.04457292     -10.32386582      -5.11755652
H       -1.67543019       1.37184581       0.27324255
H       -0.25100317       1.70250827       1.28565249
H       -1.90327837       0.82776326       2.81996355
H       -0.73524893      -0.48337076       2.56242465
H       -3.50313189      -1.17072269       3.85688001
H       -2.19689283      -2.29026730       3.43341668
H       -3.76489948      -4.00264321       4.75647762
H       -5.80408743      -3.93667448       6.63363658
H       -5.20655076      -5.47454123       5.93810847
H       -6.94370033      -5.10979364       5.92831165
H       -0.47570216      -8.35394193       0.06147545
H        1.66162962      -8.65574640      -0.18243154
H        2.33339643      -7.27412195      -1.07674918
H        2.25550496      -8.89082264      -1.83723500
H       -3.96302130      -8.64743983      -1.53365928
H       -2.98978150      -9.37156253      -0.25963460
H       -1.86596993      -8.51885406      -3.97794798
H       -3.53463834      -9.08446931      -4.15456955
H       -2.67164954     -11.21432065      -5.21438908
H       -0.99478642     -10.61516403      -5.01819546
C       -2.14715304      -9.62909123      -6.37468244
C       -2.23306389      -9.04721751      -7.42752540
Br      -2.37197446      -8.10637692      -9.12988343
C        0.91682450      -0.91682450       0.91682450
C        1.72727569      -0.08428508       1.89933262
S        3.13768197       0.73829394       1.08474907
C        3.70493450       1.80150185       2.46946119
C        4.83190419       2.76924748       2.04463641
H        5.63772809       2.17347995       1.59754813
N        5.38076846       3.46567774       3.19883675
C        6.73168894       3.71752929       3.29852714
O        7.56978412       3.30468478       2.50606072
C        7.10598955       4.51399886       4.51709333
C        4.36562093       3.73313031       1.07579906
C        3.98130535       4.52757269       0.27727312
C        3.53956331       5.44072485      -0.64057278
C        3.15524774       6.23516723      -1.43909872
C        2.68896447       7.19905006      -2.40793606
H        2.51618405       6.64613328      -3.33711632
N        1.42120379       7.73627560      -1.93825695
C        0.25813789       7.59941872      -2.65848021
O        0.19173764       7.05582344      -3.75444010
C       -0.96068512       8.16543815      -1.98011228
C        3.72892411       8.29929023      -2.68297431
S        3.20676261       9.57234298      -3.90537031
C        3.00811170       8.52209400      -5.38948813
C        2.52045696       9.35844677      -6.55885961
H        1.53426678      -1.53123500       0.25501676
H        0.21935019      -1.56773127       1.45208246
H        2.13652311      -0.74137870       2.67310337
H        1.09780082       0.66849426       2.38499627
H        4.06435282       1.14449883       3.26943522
H        2.84747656       2.36432815       2.85689378
H        4.74791033       4.00372609       3.77454965
H        6.98522952       3.89223432       5.40805433
H        6.47952210       5.40610838       4.59670428
H        8.15079952       4.82887870       4.44029751
H        1.40102410       8.18462752      -1.03316091
H       -0.70342209       8.72159784      -1.07478763
H       -1.63012047       7.34406621      -1.71008088
H       -1.46921874       8.84430663      -2.67003723
H        4.67324681       7.86290791      -3.02841670
H        3.95251794       8.83916071      -1.75477286
H        2.28666635       7.72702802      -5.19047045
H        3.97256814       8.05722661      -5.61974204
H        3.22521918      10.14758273      -6.83469665
H        1.52996539       9.78749866      -6.38103979
C        2.38805561       8.52151080      -7.72316544
C        2.27716947       7.82057693      -8.69827157
Br       2.09787597       6.68722614     -10.27493572
