170
Properties=species:S:1:pos:R:3 pbc="F F F"
C        1.79161168       1.79161168      -1.79161168
C        1.48423392       1.94670153      -3.14144654
C        2.28986996       2.75391763      -3.94871857
C        3.41220364       3.40803414      -3.41415735
C        3.70075478       3.24211802      -2.04847183
C        2.89523255       2.43707027      -1.24019091
C        4.28717707       4.28196009      -4.30707135
N        4.33205955       5.61974212      -3.71063360
C        5.10723517       6.55025361      -4.41661521
C        4.86092332       7.91854087      -4.23736854
C        5.65612320       8.88099050      -4.86275115
C        6.72912918       8.47730925      -5.64792095
C        7.01927770       7.12343460      -5.79958854
C        6.21729676       6.14918054      -5.17571562
C        6.59016825       4.69277280      -5.29342660
C        6.45798100       4.12634478      -6.68244861
C        6.00310372       2.86872308      -6.66081397
C        5.74501390       2.40765895      -5.26305860
C        5.71700782       3.72465356      -4.46296396
H        0.62208115       1.44596176      -3.57420674
H        2.03638671       2.86498673      -5.00124049
H        4.55429583       3.75449986      -1.60676869
H        3.13589315       2.32558157      -0.18632088
H        3.80208838       4.36273667      -5.29055539
H        3.40213009       5.97595984      -3.50310799
H        4.04050621       8.24632290      -3.60403181
H        5.43548914       9.93492748      -4.71909252
H        7.88035719       6.81697500      -6.38874931
H        7.63726530       4.58484782      -4.97668904
H        6.74602803       4.65414073      -7.58187259
H        5.87191674       2.24432399      -7.53426366
H        4.81409299       1.83971964      -5.19753523
H        6.56656667       1.76255193      -4.93226788
H        6.16942214       3.57524628      -3.47362481
C        7.55856414       9.46375507      -6.29023107
C        8.25321593      10.28990344      -6.82816579
Br       9.37640911      11.62571548      -7.69796074
C       -1.79161168      -1.79161168      -1.79161168
C       -2.99343236      -2.28757421      -1.29137541
C       -3.80120502      -3.09363739      -2.09766376
C       -3.41126888      -3.41468622      -3.40844004
C       -2.19745901      -2.89900456      -3.89488106
C       -1.39014077      -2.09173978      -3.09061318
C       -4.29909556      -4.30032812      -4.27678483
N       -4.60720505      -3.55496213      -5.50026808
C       -5.41989975      -4.23971625      -6.41448799
C       -6.15331889      -3.50615866      -7.35735518
C       -6.91742404      -4.14913401      -8.33330681
C       -6.92449866      -5.53738506      -8.39247566
C       -6.16441351      -6.28325249      -7.49463484
C       -5.39685408      -5.63990461      -6.50543424
C       -4.52533608      -6.46166466      -5.58936692
C       -5.28415677      -7.34657336      -4.63604427
C       -4.69213830      -7.40253028      -3.43797219
C       -3.46240831      -6.55450822      -3.39881492
C       -3.62953872      -5.64400951      -4.63107711
H       -3.31056602      -2.05311927      -0.27856436
H       -4.73713496      -3.47321465      -1.69226430
H       -1.88312411      -3.11806075      -4.91437952
H       -0.45713428      -1.70190559      -3.48875573
H       -5.24123691      -4.47631581      -3.73782772
H       -4.95946942      -2.62199857      -5.29972993
H       -6.13417066      -2.41948106      -7.33720920
H       -7.48822006      -3.55770109      -9.04358799
H       -6.14945873      -7.36805479      -7.56856798
H       -3.88461867      -7.09985657      -6.21432693
H       -6.16877298      -7.90847121      -4.90479718
H       -5.03056053      -8.01028508      -2.60965878
H       -3.38952108      -6.00352767      -2.45829911
H       -2.57538297      -7.19039459      -3.49560891
H       -2.65414071      -5.46249616      -5.10165636
C       -7.70396352      -6.20796720      -9.40061956
C       -8.35676533      -6.76957975     -10.24494008
Br      -9.41229065      -7.67765974     -11.61013495
C       -1.79161168       1.79161168       1.79161168
C       -3.01288289       2.25346006       1.30603903
C       -3.82065040       3.05949393       2.11236183
C       -3.41139397       3.41462769       3.40837348
C       -2.17801313       2.93302677       3.88030473
C       -1.37063555       2.12582361       3.07603457
C       -4.29956241       4.29987675       4.27676935
N       -4.56825006       3.57343141       5.52075379
C       -5.37634815       4.26028849       6.43746736
C       -6.07597234       3.53155110       7.40930928
C       -6.83343323       4.17885616       8.38757547
C       -6.86738810       5.56760686       8.41936442
C       -6.14046543       6.31008730       7.49174810
C       -5.37980657       5.66221054       6.50017582
C       -4.54339043       6.48239219       5.55058503
C       -5.33867422       7.33264973       4.59545043
C       -4.77175569       7.37609944       3.38478564
C       -3.52615616       6.55198477       3.33759052
C       -3.65041013       5.66344284       4.59077238
H       -3.34521372       1.99234920       0.30468673
H       -4.77190676       3.41218711       1.71852005
H       -1.84803628       3.17882475       4.88870335
H       -0.42223795       1.76267305       3.46288461
H       -5.25555893       4.44623978       3.75358174
H       -4.90549149       2.62981097       5.34589546
H       -6.03527021       2.44528086       7.41030986
H       -7.37797880       3.59070753       9.12082280
H       -6.14597488       7.39624552       7.54386111
H       -3.90344729       7.14564997       6.14970490
H       -6.22896796       7.88223086       4.87084254
H       -5.13873214       7.96016785       2.55160440
H       -3.46079358       5.98366180       2.40689248
H       -2.65041931       7.20714324       3.40382392
H       -2.66241306       5.51083327       5.04504689
C       -7.64012275       6.24285398       9.42957355
C       -8.28728803       6.80837344      10.27562370
Br      -9.33369954       7.72277058      11.64361522
C        1.79161168      -1.79161168       1.79161168
C        1.42760559      -2.02977244       3.11500396
C        2.23324282      -2.83706778       3.92219556
C        3.41189731      -3.40814369       3.41435414
C        3.75733941      -3.15928817       2.07471705
C        2.95197468      -2.35409907       1.26641998
C        4.28595006      -4.28298385       4.30727460
N        4.42753884      -5.58499329       3.64990314
C        5.21395335      -6.51160615       4.34854449
C        5.04644341      -7.87932452       4.09106480
C        5.85835283      -8.83273309       4.70877895
C        6.87023932      -8.41806274       5.56605732
C        7.08354381      -7.06120051       5.79755651
C        6.26419721      -6.09642118       5.18157453
C        6.55645262      -4.63155317       5.38836187
C        6.32864744      -4.14349374       6.79463321
C        5.81203152      -2.90986408       6.81074517
C        5.59873194      -2.39138866       5.42561085
C        5.67640245      -3.66583746       4.56238543
H        0.52120711      -1.59394251       3.52710003
H        1.93513706      -3.01360262       4.95387424
H        4.65617137      -3.60669347       1.65269955
H        3.23733323      -2.17769715       0.23276522
H        3.75860808      -4.43699109       5.25978127
H        3.52803483      -5.97475162       3.37841146
H        4.27532557      -8.21378489       3.40175046
H        5.69876325      -9.88744224       4.50330365
H        7.89844332      -6.74379922       6.44383897
H        7.61080121      -4.45717081       5.13083015
H        6.59931631      -4.70176583       7.68095922
H        5.60720694      -2.33772960       7.70556785
H        4.64441263      -1.86652983       5.34040540
H        6.40147475      -1.69133858       5.16857314
H        6.16794621      -3.44465089       3.60569612
C        7.71670039      -9.39461324       6.20123666
C        8.42561153     -10.21247428       6.73319935
Br       9.57186089     -11.53488640       7.59333804
C       -0.00445707       0.01189536      -1.78238275
H       -0.66409135       0.67374010      -2.43557963
H        0.65740317      -0.63156657      -2.45157240
C       -0.90989263      -0.90692880      -0.91072765
C        0.90977584       0.90977584      -0.90977584
C       -0.00465871       1.77757030       0.00794375
H       -0.66225468       2.44313916      -0.64384735
H        0.64322798       2.43503045       0.67728295
C       -1.78241447       0.00034974      -0.00472694
H       -2.45427497      -0.65498947       0.64260836
H       -2.43311707       0.67328779      -0.65473579
C       -0.91132561       0.90220522       0.91563759
C       -0.01476271      -0.02253852       1.78660255
H       -0.67934791      -0.69751639       2.42135241
H        0.63392994       0.61504881       2.47327442
C        0.01484550      -1.77751727      -0.01636693
H        0.67870853      -2.42144646      -0.68295456
H       -0.62264859      -2.45592969       0.64226336
C        1.78714474       0.01002794       0.00389507
H        2.44202412       0.67113390       0.66197326
H        2.45385902      -0.65136977      -0.64189061
C        0.91606151      -0.90478549       0.90901405
