170
Properties=species:S:1:pos:R:3 pbc="F F F"
C        1.78089167       1.78089167      -1.78089167
S        1.49140745       3.43783424      -2.01266720
C        2.85772101       3.61952939      -3.06992444
C        3.50244590       2.40178774      -3.18610132
C        2.88201968       1.35582190      -2.46609127
O        3.35718912       0.08997343      -2.47650341
C        4.52961108      -0.12408633      -3.21425890
C        5.14136285       0.88226207      -3.89227188
O        4.61570502       2.18089487      -3.92209302
C        6.40163120       0.71236174      -4.68966472
F        7.48985442       0.62332422      -3.88888333
F        6.37073893      -0.40596757      -5.45379027
F        6.61560660       1.75478841      -5.53274660
C        5.05167116      -1.53041366      -3.15239119
F        4.83382075      -2.19241404      -4.31446725
F        6.38563530      -1.56301936      -2.91550226
F        4.46467851      -2.25809348      -2.16920778
C        3.19574669       4.89659428      -3.66678602
S        1.97968634       6.07651449      -4.05029303
C        3.11861224       7.18456717      -4.64709122
C        4.39040355       6.69192516      -4.58155544
C        4.43408351       5.38851300      -4.03994064
O        5.60599831       4.72691021      -3.89902879
C        6.75741984       5.38367216      -4.35529215
C        6.71187992       6.64418600      -4.85768244
O        5.50460836       7.34671032      -4.98053285
C        7.91167014       7.39248527      -5.36426055
F        8.59478588       7.97554876      -4.34946489
F        8.77852620       6.58310929      -6.02072950
F        7.57428734       8.37935992      -6.23220382
C        8.01960886       4.58620812      -4.19398135
F        8.40513818       4.02161827      -5.36258335
F        9.04941256       5.34955675      -3.75361506
F        7.87285156       3.57782014      -3.29652301
C        2.76061195       8.48111595      -5.16128676
C        2.46078670       9.56697555      -5.59192553
Br       1.97599464      11.32271869      -6.28823199
C       -1.78089167      -1.78089167      -1.78089167
S       -1.22363447      -3.21071737      -2.50755706
C       -2.75513237      -3.52891897      -3.26312350
C       -3.64802777      -2.53474964      -2.90755755
C       -3.09003190      -1.53541831      -2.07848264
O       -3.80511974      -0.47240521      -1.64614101
C       -5.15114636      -0.43343151      -2.03520577
C       -5.69795384      -1.40201344      -2.81592951
O       -4.93942563      -2.47372608      -3.30554120
C       -7.13337205      -1.41576371      -3.25452191
F       -7.95794820      -1.79457260      -2.24954117
F       -7.54584569      -0.19621415      -3.67650179
F       -7.34351260      -2.27600319      -4.28362583
C       -5.92024305       0.73370924      -1.48711486
F       -6.16885466       1.65864318      -2.44566248
F       -7.11635644       0.35383647      -0.97559822
F       -5.25564721       1.36968613      -0.48983173
C       -2.96596288      -4.69486785      -4.09829627
S       -1.67934551      -5.39405586      -5.03309249
C       -2.67813993      -6.61782000      -5.65431071
C       -3.95878622      -6.51266593      -5.19243200
C       -4.12706273      -5.41359041      -4.32188401
O       -5.32896599      -5.13850641      -3.76446492
C       -6.39626382      -5.97114983      -4.12897050
C       -6.22464030      -7.03765409      -4.95145398
O       -4.97603945      -7.34541693      -5.51039515
C       -7.33176783      -7.95881680      -5.37783134
F       -7.57670561      -8.90448467      -4.43860925
F       -8.49373013      -7.29494311      -5.59369175
F       -7.04226696      -8.61253023      -6.53105389
C       -7.70599830      -5.59711463      -3.49668540
F       -8.50282668      -4.92551266      -4.36100046
F       -8.39415929      -6.68530097      -3.07312410
F       -7.53715901      -4.79845392      -2.41158179
C       -2.20856844      -7.63119916      -6.56324705
C       -1.81530232      -8.47990422      -7.32448125
Br      -1.17942427      -9.85218850      -8.55533255
C       -1.78089167       1.78089167       1.78089167
S       -3.12160682       1.18487640       2.63542568
C       -3.50130530       2.74312198       3.30274756
C       -2.56599427       3.66161742       2.86272326
C       -1.59889719       3.11764164       1.98739403
O       -0.61691517       3.86797345       1.43877734
C       -0.58521550       5.21716385       1.81740429
C       -1.50077315       5.74090876       2.67421489
O       -2.54833098       4.97187457       3.19848736
C       -1.50915373       7.17399145       3.12051249
F       -0.54597790       7.41487974       4.04120433
F       -1.30286938       8.02717846       2.08851378
F       -2.69268674       7.52474651       3.68570837
C        0.55351151       5.99861893       1.22854126
F        0.12862891       6.83432480       0.25017807
F        1.17979137       6.75711252       2.16079704
F        1.50104578       5.19851315       0.67832543
C       -4.63078991       2.93809258       4.19024450
S       -6.06994683       1.97332007       4.06322696
C       -6.82159658       2.76677128       5.36190277
C       -6.03014771       3.74891793       5.88481851
C       -4.79358067       3.85739337       5.21156311
O       -3.87350647       4.77876218       5.57966866
C       -4.22969926       5.63883077       6.62785412
C       -5.41218008       5.51765054       7.28391774
O       -6.35866269       4.54685686       6.92633197
C       -5.84638773       6.41298000       8.40904824
F       -5.31437342       6.01520916       9.59021695
F       -5.47081358       7.70033639       8.21121503
F       -7.19402327       6.42529622       8.56653160
C       -3.17657673       6.65320047       6.97002113
F       -3.46873982       7.86921244       6.45138753
F       -3.03623037       6.80701884       8.30933515
F       -1.95616983       6.30092531       6.49009958
C       -8.13983660       2.42979712       5.83338095
C       -9.24386261       2.14758125       6.22824392
Br     -11.02897930       1.69126207       6.86670395
C        1.78089167      -1.78089167       1.78089167
S        2.99004499      -1.15591777       2.79594613
C        3.45046921      -2.73105886       3.36564678
C        2.63866112      -3.67991460       2.77175923
C        1.70147804      -3.14098987       1.86146495
O        0.83729353      -3.91709131       1.16928112
C        0.89423490      -5.29255094       1.43299781
C        1.77996545      -5.81393421       2.32199714
O        2.70957559      -5.01179967       2.99731764
C        1.87861805      -7.27540600       2.64963363
F        0.86900919      -7.67392488       3.45912789
F        1.83280826      -8.04805967       1.53769370
F        3.03876218      -7.57757688       3.28680256
C       -0.11955412      -6.10870597       0.68449684
F        0.45536120      -6.81756931      -0.31705656
F       -0.74993822      -6.99480654       1.49324987
F       -1.08628474      -5.34261327       0.11946428
C        4.51707192      -2.91140347       4.33065160
S        5.87097963      -1.82569688       4.40981735
C        6.58197094      -2.66713910       5.70116060
C        5.84053921      -3.75253383       6.07081111
C        4.67704566      -3.90104269       5.28444880
O        3.81510117      -4.92285881       5.49397733
C        4.15967539      -5.84038512       6.49632364
C        5.26974482      -5.68213024       7.26187330
O        6.15269117      -4.61003327       7.06912709
C        5.68864624      -6.63513119       8.34463853
F        5.02959122      -6.38763516       9.50257315
F        5.44546842      -7.92619047       8.01070609
F        7.01488617      -6.55200539       8.61895952
C        3.17595491      -6.96302832       6.66081509
F        3.61541017      -8.10080165       6.07312798
F        2.94161820      -7.24535285       7.96561332
F        1.97215514      -6.66986591       6.10517368
C        7.82273500      -2.26734415       6.31293551
C        8.86187491      -1.93251589       6.82529699
Br      10.54207624      -1.39112690       7.65374218
C       -0.00445707       0.01189536      -1.78238275
H       -0.66409135       0.67374010      -2.43557963
H        0.65740317      -0.63156657      -2.45157240
C       -0.90989263      -0.90692880      -0.91072765
C        0.90977584       0.90977584      -0.90977584
C       -0.00465871       1.77757030       0.00794375
H       -0.66225468       2.44313916      -0.64384735
H        0.64322798       2.43503045       0.67728295
C       -1.78241447       0.00034974      -0.00472694
H       -2.45427497      -0.65498947       0.64260836
H       -2.43311707       0.67328779      -0.65473579
C       -0.91132561       0.90220522       0.91563759
C       -0.01476271      -0.02253852       1.78660255
H       -0.67934791      -0.69751639       2.42135241
H        0.63392994       0.61504881       2.47327442
C        0.01484550      -1.77751727      -0.01636693
H        0.67870853      -2.42144646      -0.68295456
H       -0.62264859      -2.45592969       0.64226336
C        1.78714474       0.01002794       0.00389507
H        2.44202412       0.67113390       0.66197326
H        2.45385902      -0.65136977      -0.64189061
C        0.91606151      -0.90478549       0.90901405
