178
Properties=species:S:1:pos:R:3 pbc="F F F"
C        1.78092092       1.78092092      -1.78092092
S        1.37925819       3.38819559      -2.17968954
C        2.81004149       3.58368574      -3.11675175
C        3.55523079       2.42827949      -3.10544072
C        2.96775522       1.39742017      -2.34158453
O        3.54787968       0.18409079      -2.20618019
C        4.77116149       0.00763636      -2.87046719
C        5.33829399       0.99939514      -3.60722747
O        4.73437215       2.25886160      -3.74668265
C        6.64396869       0.85783432      -4.33599902
F        7.66209179       0.57260101      -3.48903082
F        6.59881672      -0.13528731      -5.25632806
F        6.99398042       1.98837196      -4.99948508
C        5.37857486      -1.35430900      -2.69073837
F        5.53664760      -1.99278730      -3.87508838
F        6.59928449      -1.28537480      -2.10721320
F        4.61897418      -2.16357660      -1.91028647
C        3.13771144       4.79537808      -3.79286213
C        3.40300773       5.82204172      -4.35471365
C        3.72601650       7.14253150      -5.06164005
C        3.96441251       8.18563752      -5.60534407
C        4.23546558       9.43235513      -6.24218706
S        3.19036820      10.79475352      -6.12182810
C        4.21157269      11.74611773      -7.09853449
C        5.31762470      11.05390137      -7.50830361
C        5.32977717       9.73034875      -7.01886817
O        6.33531479       8.87212248      -7.30582858
C        7.36415942       9.37483111      -8.11776414
C        7.35090670      10.65023344      -8.58799771
O        6.30729987      11.53967366      -8.29039406
C        8.42781903      11.23356842      -9.45764139
F        9.63409902      11.21544998      -8.84123412
F        8.56117208      10.54763529     -10.61825194
F        8.18184645      12.52474708      -9.79432144
C        8.45734560       8.38706438      -8.40952481
F        8.58342306       8.15760632      -9.73871916
F        9.65945949       8.82380489      -7.96294413
F        8.23865369       7.18228891      -7.82511384
Br       3.83552275      13.52611658      -7.53917077
C       -1.78092092      -1.78092092      -1.78092092
S       -1.17169547      -3.09082463      -2.68462321
C       -2.72968400      -3.46949588      -3.31129910
C       -3.67145332      -2.59526034      -2.82223734
C       -3.12986515      -1.62997289      -1.94692188
O       -3.89502501      -0.68232129      -1.36080435
C       -5.26257031      -0.71333692      -1.67335781
C       -5.78595267      -1.64214653      -2.51681739
O       -4.98976537      -2.62558667      -3.12456436
C       -7.24107962      -1.71486971      -2.88185270
F       -8.02184265      -1.90983762      -1.79204335
F       -7.66517445      -0.57535273      -3.47933027
F       -7.51113471      -2.72934026      -3.74136249
C       -6.07277148       0.35656661      -0.99879937
F       -6.68457526       1.16395326      -1.89832668
F       -7.04058727      -0.17003272      -0.21050290
F       -5.31800875       1.15825558      -0.20593088
C       -2.96497070      -4.55113968      -4.20984127
C       -3.14972294      -5.46655428      -4.96348588
C       -3.36593660      -6.64227761      -5.92197383
C       -3.51695617      -7.56953677      -6.66890116
C       -3.68085997      -8.67673136      -7.55241643
S       -2.37748601      -9.69012542      -8.03933839
C       -3.40129786     -10.65538633      -8.99954072
C       -4.69873322     -10.22504269      -8.95605377
C       -4.85735028      -9.09267373      -8.12897007
O       -6.06208906      -8.50520365      -7.94597314
C       -7.14328199      -9.08734660      -8.62612607
C       -6.98860412     -10.17839217      -9.42214156
O       -5.73858837     -10.78685883      -9.61192040
C       -8.11357971     -10.83705328     -10.16839586
F       -9.07736712     -11.28511219      -9.32830382
F       -8.70578782      -9.98343427     -11.03783721
F       -7.70055074     -11.90705834     -10.89330589
C       -8.45912857      -8.40169812      -8.39310810
F       -8.99368208      -7.93781099      -9.54825546
F       -9.36886358      -9.23856885      -7.83877608
F       -8.34982957      -7.33708666      -7.55914020
Br      -2.79077608     -12.12528030      -9.98475372
C       -1.78092092       1.78092092       1.78092092
S       -3.34278583       1.32084962       2.28350785
C       -3.56530677       2.78640144       3.15877077
C       -2.45330448       3.58741932       3.04822721
C       -1.43262925       3.01304310       2.26108758
O       -0.25928557       3.64459940       2.03426569
C       -0.11372181       4.90761451       2.62792872
C       -1.09613867       5.46273091       3.38604702
O       -2.31402928       4.80533189       3.62055522
C       -0.98713224       6.81027888       4.04039090
F        0.04941736       6.86201711       4.91112386
F       -0.79470556       7.79502535       3.13012656
F       -2.10146889       7.13945198       4.74091659
C        1.20514744       5.57043477       2.34971691
F        1.04608323       6.75435111       1.71068081
F        1.89068823       5.82069665       3.49111447
F        2.01390861       4.81148548       1.56810718
C       -4.75482075       3.08554434       3.88558655
C       -5.76032925       3.32362971       4.49580413
C       -7.05043183       3.60755277       5.27220344
C       -8.06646205       3.81112239       5.87780966
C       -9.27781160       4.03668309       6.59551307
S      -10.56577993       2.89584961       6.64532028
C      -11.50905073       3.90664391       7.64053027
C      -10.86920759       5.08006127       7.93056081
C       -9.59360239       5.15388639       7.33150530
O       -8.79143523       6.23153035       7.49030026
C       -9.30181416       7.27024094       8.28469957
C      -10.53070665       7.19716468       8.86126652
O      -11.36241791       6.07930366       8.69564602
C      -11.11904281       8.28050982       9.71947622
F      -10.35417287       8.52627642      10.81033384
F      -11.23699019       9.44785875       9.04221037
F      -12.35818558       7.96760576      10.17512363
C       -8.37715516       8.44459982       8.43217981
F       -8.93592278       9.58453705       7.95928870
F       -8.05160553       8.66621365       9.72838933
F       -7.21043281       8.27485394       7.76076968
Br     -13.21573911       3.43629796       8.24877303
C        1.78092092      -1.78092092       1.78092092
S        3.22603026      -1.22705177       2.49406127
C        3.52017902      -2.75043485       3.23986512
C        2.51871770      -3.64011499       2.93011831
C        1.52384104      -3.08641233       2.09650655
O        0.45462702      -3.80180173       1.68172191
C        0.39027463      -5.13030116       2.12868925
C        1.34806047      -5.66554706       2.93130908
O        2.45775523      -4.92105131       3.36110986
C        1.32313519      -7.08069447       3.43397236
F        0.21780676      -7.32908619       4.17683065
F        1.33005054      -7.97416514       2.41564179
F        2.39237608      -7.37317381       4.21628757
C       -0.81440567      -5.88532162       1.64408829
F       -0.46474957      -6.97084538       0.91285287
F       -1.57748533      -6.32511308       2.67349514
F       -1.62039436      -5.12879847       0.85727994
C        4.65790882      -3.00868445       4.05935837
C        5.61843782      -3.21190756       4.74941772
C        6.84911744      -3.45062160       5.63044901
C        7.81673456      -3.61816465       6.32049489
C        8.96891580      -3.80048702       7.14060493
S       10.11326088      -2.55072743       7.44296151
C       11.05880030      -3.56646484       8.43095977
C       10.52563950      -4.82180448       8.53238569
C        9.33094954      -4.95490589       7.79313866
O        8.63967943      -6.11714655       7.75643986
C        9.17985477      -7.18115697       8.49574293
C       10.33063572      -7.05093614       9.20756599
O       11.04740412      -5.84526162       9.24470186
C       10.94651821      -8.15839717      10.01411347
F       10.10945591      -8.59602632      10.98530090
F       11.25745688      -9.22740206       9.24220037
F       12.09312415      -7.77673037      10.63106045
C        8.37911144      -8.44988107       8.42494228
F        9.10296064      -9.47072121       7.90606668
F        7.95373610      -8.84282342       9.64964898
F        7.27261635      -8.32343394       7.65000614
Br      12.63563420      -2.99972673       9.26544917
C       -0.00445707       0.01189536      -1.78238275
H       -0.66409135       0.67374010      -2.43557963
H        0.65740317      -0.63156657      -2.45157240
C       -0.90989263      -0.90692880      -0.91072765
C        0.90977584       0.90977584      -0.90977584
C       -0.00465871       1.77757030       0.00794375
H       -0.66225468       2.44313916      -0.64384735
H        0.64322798       2.43503045       0.67728295
C       -1.78241447       0.00034974      -0.00472694
H       -2.45427497      -0.65498947       0.64260836
H       -2.43311707       0.67328779      -0.65473579
C       -0.91132561       0.90220522       0.91563759
C       -0.01476271      -0.02253852       1.78660255
H       -0.67934791      -0.69751639       2.42135241
H        0.63392994       0.61504881       2.47327442
C        0.01484550      -1.77751727      -0.01636693
H        0.67870853      -2.42144646      -0.68295456
H       -0.62264859      -2.45592969       0.64226336
C        1.78714474       0.01002794       0.00389507
H        2.44202412       0.67113390       0.66197326
H        2.45385902      -0.65136977      -0.64189061
C        0.91606151      -0.90478549       0.90901405
