170
Properties=species:S:1:pos:R:3 pbc="F F F"
N        5.47534808       3.96282540      -3.59650226
C        4.24900757       4.52660756      -3.03799840
H        4.49833108       5.00342398      -2.08301854
C        3.29263693       3.39296268      -2.78901961
S        2.73248974       3.03900628      -1.16473507
C        1.75773517       1.75773517      -1.75773517
C        1.88034825       1.59824531      -3.17453500
C        2.70746957       2.46379147      -3.78408963
C        3.01896196       2.50448681      -5.23661099
C        3.68892906       5.51424634      -3.93019664
C        3.22730646       6.32826861      -4.66555583
C        2.69670576       7.26392640      -5.51079628
C        2.23508316       8.07794867      -6.24615547
C        1.67500464       9.06558744      -7.13835371
H        1.52261502      10.00328772      -6.59382354
C        2.58478319       9.33893259      -8.30552448
S        2.53315055       8.43993876      -9.81161134
C        3.79944141       9.40210667     -10.45664858
C        4.27870022      10.36533038      -9.51222242
C        3.65704081      10.36097522      -8.32217150
C        3.95932931      11.22838490      -7.15506306
N        0.36719251       8.62595507      -7.62014967
H        5.88891474       3.33765311      -2.90640343
H        6.14628488       4.71719718      -3.73173093
H        1.33733627       0.82348788      -3.69982299
H        2.70357171       3.45294558      -5.67955932
H        2.49766888       1.70589133      -5.77589603
H        4.08957314       2.36889540      -5.41340153
H        5.09357754      11.03350170      -9.75900821
H        3.09004760      11.83833579      -6.89069003
H        4.79072309      11.90915985      -7.36660785
H        4.23861710      10.62228629      -6.28753436
H        0.50007422       7.76576927      -8.15420299
H        0.01723583       9.30675476      -8.29191962
C        4.27954896       9.30002709     -11.81041240
C        4.68163903       9.21453544     -12.94418961
Br       5.33178467       9.07630268     -14.77741146
N       -3.19564563      -4.88181562      -4.95721449
C       -3.50413244      -3.45796459      -4.85151650
H       -2.98461020      -2.93646573      -5.66369766
C       -2.97412347      -2.96859988      -3.53189585
S       -1.73760829      -1.72565670      -3.47296610
C       -1.75773517      -1.75773517      -1.75773517
C       -2.68480924      -2.72097386      -1.24734546
C       -3.37148615      -3.40971209      -2.17415242
C       -4.37946573      -4.46954875      -1.91104528
C       -4.92517561      -3.23319156      -4.97500487
C       -6.09641436      -3.04793126      -5.07678529
C       -7.44266579      -2.83498838      -5.19377427
C       -8.61390453      -2.64972808      -5.29555468
C      -10.03494771      -2.42495505      -5.41904305
H      -10.21992301      -1.69021599      -6.20958728
C      -10.76902962      -3.69118490      -5.76902575
S      -11.39192378      -4.81696848      -4.57580839
C      -12.01779304      -5.82308022      -5.81732340
C      -11.71253407      -5.32097108      -7.12274786
C      -11.02297668      -4.16920155      -7.14800929
C      -10.55351411      -3.43721216      -8.35205099
N      -10.56739629      -1.86919819      -4.17670277
H       -2.18316029      -4.99573561      -4.95407538
H       -3.51430471      -5.21566112      -5.86524717
H       -2.80649548      -2.87150000      -0.18265167
H       -5.36214677      -4.18063474      -2.29329510
H       -4.49074495      -4.65218477      -0.83652651
H       -4.08405334      -5.41651364      -2.37130310
H      -12.01779609      -5.85508181      -8.01320955
H      -10.99217514      -2.43541119      -8.39148709
H      -10.83433096      -3.95917635      -9.27298347
H       -9.46319334      -3.34187905      -8.34336536
H      -10.42578804      -2.55801101      -3.43624743
H      -11.57760966      -1.77409406      -4.26420649
C      -12.81435380      -6.99842535      -5.57720930
C      -13.48147344      -7.98277690      -5.37611374
Br     -14.56014947      -9.57439010      -5.05095924
N       -5.47960492       3.61531239       3.93975842
C       -4.52383542       4.25240707       3.03737104
H       -5.03591394       4.45848844       2.09037121
C       -3.40364417       3.27953815       2.79143689
S       -3.07679480       2.68614946       1.17328683
C       -1.75773517       1.75773517       1.75773517
C       -1.58980774       1.89069528       3.17262553
C       -2.46381701       2.70743825       3.78409540
C       -2.51435599       3.00685932       5.23884445
C       -4.04270995       5.49348282       3.59717927
C       -3.64616127       6.51639052       4.05857911
C       -3.19035819       7.69214650       4.58892375
C       -2.79380951       8.71505420       5.05032358
C       -2.31268404       9.95612995       5.61013181
H       -2.46656412      10.76494366       4.88821850
C       -3.03861224      10.31090322       6.87972479
S       -2.52696261       9.78426811       8.47346994
C       -3.83723954      10.62367083       9.19728630
C       -4.67382995      11.25822078       8.22420228
C       -4.28695726      11.10564488       6.94758538
C       -4.97230488      11.63119716       5.73927523
N       -0.87645015       9.87045614       5.86639096
H       -5.86303109       2.79202882       3.47791138
H       -6.26356444       4.24996558       4.08168297
H       -0.80720924       1.35729887       3.69613903
H       -2.33918052       4.06938838       5.42750771
H       -1.74494777       2.44977374       5.78473473
H       -3.48127506       2.72545539       5.66513961
H       -5.55747219      11.80886484       8.51975041
H       -4.31720577      12.31325373       5.18861391
H       -5.88078214      12.18335826       6.00235039
H       -5.26240946      10.81146569       5.07456260
H       -0.72253886       9.13722924       6.56027837
H       -0.56941491      10.73188726       6.31460804
C       -4.03611295      10.73471794      10.61915756
C       -4.20266944      10.82771989      11.80997475
Br      -4.47197719      10.97809618      13.73542543
N        3.21140495      -4.74310646       5.08016432
C        3.61394164      -3.35963601       4.84003588
H        3.19975622      -2.74069910       5.64431828
C        3.01858649      -2.92781610       3.52821661
S        1.87555998      -1.59873858       3.46193253
C        1.75773517      -1.75773517       1.75773517
C        2.56861658      -2.82595233       1.25855965
C        3.27411069      -3.49710667       2.18413330
C        4.17789152      -4.64965565       1.93251258
C        5.05292533      -3.23938254       4.84106417
C        6.23895083      -3.14026837       4.84191170
C        7.60219853      -3.02634403       4.84288588
C        8.78822403      -2.92722986       4.84373341
C       10.22720771      -2.80697639       4.84476170
H       10.52731891      -2.03327114       5.55913624
C       10.89200858      -4.09821937       5.23901231
S       11.33464710      -5.35397601       4.09607755
C       11.98132178      -6.31282612       5.36404876
C       11.81769664      -5.69399712       6.64455926
C       11.21842640      -4.49260690       6.62915422
C       10.90036591      -3.63968249       7.80272887
N       10.69909569      -2.38741948       3.52678208
H        2.19622205      -4.77661691       5.16013233
H        3.57550777      -5.03373529       5.98596993
H        2.59447944      -3.06312606       0.20304164
H        5.20619512      -4.41207231       2.21780918
H        4.19028210      -4.91864948       0.87052466
H        3.85125708      -5.53409988       2.48651311
H       12.15243761      -6.18395437       7.54969547
H       11.41290001      -2.67547040       7.73070300
H       11.21409958      -4.11340314       8.73898807
H        9.82267441      -3.45941405       7.86634929
H       10.44941670      -3.11522577       2.85540401
H       11.71730699      -2.36626251       3.53234071
C       12.66827673      -7.56182933       5.15988241
C       13.24360149      -8.60786951       4.98889308
Br      14.17385297     -10.29922802       4.71241781
C       -0.00445707       0.01189536      -1.78238275
H       -0.66409135       0.67374010      -2.43557963
H        0.65740317      -0.63156657      -2.45157240
C       -0.90989263      -0.90692880      -0.91072765
C        0.90977584       0.90977584      -0.90977584
C       -0.00465871       1.77757030       0.00794375
H       -0.66225468       2.44313916      -0.64384735
H        0.64322798       2.43503045       0.67728295
C       -1.78241447       0.00034974      -0.00472694
H       -2.45427497      -0.65498947       0.64260836
H       -2.43311707       0.67328779      -0.65473579
C       -0.91132561       0.90220522       0.91563759
C       -0.01476271      -0.02253852       1.78660255
H       -0.67934791      -0.69751639       2.42135241
H        0.63392994       0.61504881       2.47327442
C        0.01484550      -1.77751727      -0.01636693
H        0.67870853      -2.42144646      -0.68295456
H       -0.62264859      -2.45592969       0.64226336
C        1.78714474       0.01002794       0.00389507
H        2.44202412       0.67113390       0.66197326
H        2.45385902      -0.65136977      -0.64189061
C        0.91606151      -0.90478549       0.90901405
