149
Properties=species:S:1:pos:R:3 pbc="F F F"
C        0.00000000       0.00000000       0.00000000
N        4.56544405       3.05292137      -2.68659824
C        3.33910355       3.61670354      -2.12809437
H        3.58842705       4.09351995      -1.17311451
C        2.38273290       2.48305865      -1.87911558
S        1.82258572       2.12910226      -0.25483104
C        0.84783115       0.84783115      -0.84783115
C        0.97044422       0.68834128      -2.26463098
C        1.79756554       1.55388745      -2.87418560
C        2.10905793       1.59458279      -4.32670697
C        2.77902504       4.60434231      -3.02029262
C        2.31740243       5.41836459      -3.75565181
C        1.78680174       6.35402237      -4.60089225
C        1.32517913       7.16804465      -5.33625144
C        0.76510062       8.15568342      -6.22844969
H        0.61271100       9.09338370      -5.68391951
C        1.67487917       8.42902856      -7.39562045
S        1.62324652       7.53003474      -8.90170732
C        2.88953739       8.49220265      -9.54674455
C        3.36879619       9.45542635      -8.60231840
C        2.74713678       9.45107119      -7.41226747
C        3.04942528      10.31848087      -6.24515904
N       -0.54271151       7.71605105      -6.71024564
H        4.97901072       2.42774909      -1.99649941
H        5.23638086       3.80729316      -2.82182691
H        0.42743225      -0.08641615      -2.78991896
H        1.79366768       2.54304156      -4.76965529
H        1.58776485       0.79598731      -4.86599200
H        3.17966912       1.45899138      -4.50349751
H        4.18367351      10.12359767      -8.84910419
H        2.18014357      10.92843177      -5.98078600
H        3.88081906      10.99925583      -6.45670382
H        3.32871308       9.71238227      -5.37763034
H       -0.40982980       6.85586525      -7.24429896
H       -0.89266819       8.39685073      -7.38201560
C        3.36964494       8.39012307     -10.90050838
C        3.77173501       8.30463142     -12.03428559
Br       4.42188064       8.16639865     -13.86750744
N       -3.29312532      -2.51753525      -4.49430309
C       -3.75230561      -2.18299978      -3.14859607
H       -4.36471860      -1.27626647      -3.21407645
C       -2.53968293      -1.89997077      -2.30525343
S       -2.30546192      -0.31899460      -1.58206250
C       -0.84783115      -0.84783115      -0.84783115
C       -0.54320194      -2.20785994      -1.17235460
C       -1.43328570      -2.82578088      -1.96657202
C       -1.34635674      -4.22536087      -2.45863008
C       -4.54846577      -3.25541211      -2.59978208
C       -5.20466936      -4.13930564      -2.14744382
C       -5.95892635      -5.15527522      -1.62751479
C       -6.61512994      -6.03916876      -1.17517653
C       -7.41129010      -7.11158109      -0.62636254
H       -8.37755067      -6.71569475      -0.29676879
C       -7.66467537      -8.19153172      -1.64332110
S       -6.59878086      -9.56284565      -1.89336207
C       -7.63736596     -10.17762583      -3.11349281
C       -8.75758720      -9.31836939      -3.35058436
C       -8.80940350      -8.21780847      -2.58326348
C       -9.83784465      -7.14718964      -2.62803091
N       -6.75164838      -7.67950453       0.54756773
H       -2.81135876      -1.70846647      -4.88343399
H       -4.10808684      -2.67190162      -5.08551246
H        0.35137945      -2.68643213      -0.79588238
H       -2.18783775      -4.82203177      -2.09649501
H       -0.42952825      -4.71208801      -2.10812791
H       -1.33250555      -4.25805037      -3.55160207
H       -9.49362012      -9.55467850      -4.10807675
H      -10.35523240      -7.06707427      -1.66705467
H      -10.59251884      -7.34854009      -3.39571979
H       -9.37778197      -6.18141764      -2.85952607
H       -5.86037033      -8.07746970       0.24750562
H       -7.29862814      -8.47045748       0.88288748
C       -7.44332027     -11.44180962      -3.77514650
C       -7.28080700     -12.50056355      -4.32928147
Br      -7.01803679     -14.21247910      -5.22527084
N       -3.85677780       4.15068155       2.29750431
C       -2.46540187       3.93313595       2.68536364
H       -1.86202967       4.73979994       2.25323191
C       -2.02442292       2.61937330       2.10111092
S       -0.70910053       2.55525818       0.94216030
C       -0.84783115       0.84783115       0.84783115
C       -1.89930766       0.34562687       1.67848196
C       -2.57327287       1.27159743       2.38076829
C       -3.71105398       1.01703097       3.30226273
C       -2.32706893       3.95402044       4.12257060
C       -2.21305346       3.97123366       5.30713170
C       -2.08200120       3.99101897       6.66869619
C       -1.96798574       4.00823219       7.85325729
C       -1.82965280       4.02911669       9.29046425
H       -1.06140049       4.75694042       9.57167330
C       -3.11734654       4.41552595       9.96665570
S       -4.35276133       3.26261125      10.43961600
C       -5.31948104       4.52655354      11.08245001
C       -4.71913354       5.81256176      10.89484564
C       -3.52528250       5.80464166      10.28055128
C       -2.69145785       6.98470906       9.93689828
N       -1.38742342       2.72264452       9.77351724
H       -3.90407991       4.21727436       1.28190495
H       -4.15432354       5.05732502       2.65385237
H       -2.12266308      -0.71237729       1.72064928
H       -3.46420263       1.31837998       4.32378192
H       -3.96631149      -0.04801431       3.33144698
H       -4.60652936       1.55564686       2.97998178
H       -5.21633674       6.71565280      11.22438583
H       -1.72003132       6.93136417      10.43796585
H       -3.17308819       7.91885467      10.24483585
H       -2.52559376       7.03685085       8.85628106
H       -2.10969744       2.03903093       9.54160604
H       -1.35352491       2.74144774      10.79122549
C       -6.55703489       4.31545592      11.78778557
C       -7.59348625       4.13866166      12.37850410
Br      -9.26934042       3.85280030      13.33364601
N        2.42417828      -4.41546581       3.46531957
C        2.24459503      -3.01180545       3.82750097
H        1.39439391      -2.94458671       4.51608091
C        1.92411629      -2.24940469       2.57138616
S        0.39359580      -1.40860391       2.40431931
C        0.84783115      -0.84783115       0.84783115
C        2.14344995      -1.31754090       0.46242563
C        2.77132394      -2.08796871       1.36634594
C        4.11196988      -2.70954689       1.20883092
C        3.42597597      -2.49794154       4.47974246
C        4.39968258      -2.07440949       5.01732676
C        5.51888557      -1.58759104       5.63523975
C        6.49259217      -1.16405900       6.17282405
C        7.67397311      -0.65019508       6.82506553
H        7.39527216      -0.20764924       7.78709281
C        8.68469382      -1.73586469       7.07896967
S        9.92911206      -2.19551427       5.93036225
C       10.53207867      -3.37612248       7.02028344
C        9.76055801      -3.44158126       8.22440167
C        8.73625465      -2.57662688       8.29759393
C        7.76256797      -2.43974651       9.41075071
N        8.27516022       0.40934351       6.01776846
H        1.54566189      -4.76860064       3.08899669
H        2.60196509      -4.94886600       4.31466983
H        2.56896307      -1.06083738      -0.49886539
H        4.80984208      -2.33438257       1.96213988
H        4.54142953      -2.48118990       0.22712473
H        4.05293415      -3.79841940       1.29080444
H        9.99883854      -4.15391389       9.00362295
H        7.80897818      -1.43603972       9.84434344
H        7.96698849      -3.15751232      10.21227791
H        6.74349052      -2.62052373       9.05471143
H        8.56511452       0.00211130       5.12733119
H        9.13712626       0.71608538       6.46515726
C       11.71469552      -4.16267714       6.78290372
C       12.70513714      -4.82141668       6.58409820
Br      14.30659746      -5.88654279       6.26264648
