114
Properties=species:S:1:pos:R:3 pbc="F F F"
C        1.82728592       1.82728592      -1.82728592
C        1.31137512       1.79160538      -3.25685165
C        2.22790711       2.53107380      -4.22890971
N        2.23639983       3.95949930      -4.04808970
C        3.13147008       4.57440461      -3.21533445
O        3.94560913       3.97283596      -2.52700888
C        3.01839116       6.05742675      -3.17819200
C        2.81168563       6.75462905      -1.85383553
C        4.12148992       6.89443754      -2.57426099
H        2.84229227       1.43089997      -1.74237777
H        1.77578368       2.82660658      -1.38935944
H        0.29786201       2.21446741      -3.29160144
H        1.21641816       0.74418388      -3.57575316
H        3.24827513       2.13455618      -4.20458968
H        1.58834519       4.50657791      -4.59677150
H        2.51520196       6.49953125      -4.03356395
H        2.79869195       6.15501113      -0.94966375
H        2.15237445       7.61401383      -1.82670702
H        4.35036739       7.84560036      -3.04002781
H        4.98569991       6.38778940      -2.15691543
C        1.74494037       2.30623641      -5.56674052
C        1.34045572       2.11793510      -6.68717382
Br       0.68643826       1.81346781      -8.49881971
C       -1.82728592      -1.82728592      -1.82728592
C       -1.92316499      -3.21734957      -1.21931759
C       -2.66723472      -4.20054318      -2.12011272
N       -4.07635064      -3.92928766      -2.23835054
C       -4.57376532      -3.12220825      -3.22523557
O       -3.87523095      -2.53155306      -4.03866996
C       -6.05492376      -2.98212900      -3.21695715
C       -6.67131200      -1.60462696      -3.14421124
C       -6.77581051      -2.40287667      -4.41150127
H       -1.36157778      -1.83798462      -2.81600761
H       -2.79538952      -1.32352547      -1.87283470
H       -2.41168894      -3.15511575      -0.23712618
H       -0.90840937      -3.59564069      -1.03230514
H       -2.20521437      -4.27193808      -3.11026853
H       -4.70036445      -4.39583447      -1.59549568
H       -6.58619238      -3.77070802      -2.69139677
H       -6.01305644      -0.74211849      -3.14819189
H       -7.56740099      -1.47706929      -2.54862502
H       -7.74004723      -2.82116278      -4.67478555
H       -6.18717821      -2.07933831      -5.26388821
C       -2.56637465      -5.51370210      -1.53784055
C       -2.48190434      -6.61347270      -1.05018760
Br      -2.34532299      -8.39170875      -0.26169404
C       -1.82728592       1.82728592       1.82728592
C       -3.28042692       1.67021726       1.40918797
C       -4.20923377       2.63238440       2.14627244
N       -4.36381366       2.33384941       3.54632577
C       -3.54381473       2.88307290       4.49432151
O       -2.59671340       3.61393018       4.23481039
C       -3.87077312       2.49135454       5.89188225
C       -2.80451623       1.85961253       6.75602145
C       -3.28190968       3.25078300       7.05749577
H       -1.46659475       2.85089558       1.69807968
H       -1.64858737       1.49185244       2.85130988
H       -3.59902164       0.63157320       1.57333602
H       -3.36152038       1.84725980       0.32757501
H       -3.90539634       3.67509060       2.00693405
H       -5.13415601       1.73960675       3.81793184
H       -4.88304465       2.12558944       6.03966307
H       -1.80512721       1.75026431       6.34797530
H       -3.09879261       1.06409651       7.43020619
H       -3.90338710       3.40019828       7.93241019
H       -2.60623641       4.07425382       6.84991450
C       -5.52507720       2.52075915       1.57208095
C       -6.62709607       2.42727299       1.09119558
Br      -8.40896739       2.27611379       0.31364460
C        1.82728592      -1.82728592       1.82728592
C        3.21025448      -1.20669671       1.94288096
C        4.19497675      -2.10513205       2.68778181
N        3.91110224      -2.23997093       4.09291567
C        3.10899618      -3.23959874       4.57261421
O        2.53330188      -4.05182859       3.86032349
C        2.95432609      -3.24736086       6.05232296
C        1.57019391      -3.19423157       6.65572472
C        2.37989011      -4.45460659       6.75569174
H        1.85233999      -2.81119531       1.35203471
H        1.31453334      -1.88735561       2.78986074
H        3.13351126      -0.23004817       2.44037144
H        3.59660657      -1.00594533       0.93380329
H        4.28069917      -3.08991683       2.21680498
H        4.36511994      -1.59878300       4.72779166
H        3.73241551      -2.71938021       6.59650144
H        0.71426267      -3.20015058       5.98895358
H        1.42796521      -2.60882683       7.55630325
H        2.79128847      -4.72331188       7.72139522
H        2.07059484      -5.30425443       6.15555547
C        5.50323149      -1.50904244       2.60564337
C        6.59889483      -1.00981739       2.53685242
Br       8.37048978      -0.20261272       2.42562327
C       -0.00445707       0.01189536      -1.78238275
H       -0.66409135       0.67374010      -2.43557963
H        0.65740317      -0.63156657      -2.45157240
C       -0.90989263      -0.90692880      -0.91072765
C        0.90977584       0.90977584      -0.90977584
C       -0.00465871       1.77757030       0.00794375
H       -0.66225468       2.44313916      -0.64384735
H        0.64322798       2.43503045       0.67728295
C       -1.78241447       0.00034974      -0.00472694
H       -2.45427497      -0.65498947       0.64260836
H       -2.43311707       0.67328779      -0.65473579
C       -0.91132561       0.90220522       0.91563759
C       -0.01476271      -0.02253852       1.78660255
H       -0.67934791      -0.69751639       2.42135241
H        0.63392994       0.61504881       2.47327442
C        0.01484550      -1.77751727      -0.01636693
H        0.67870853      -2.42144646      -0.68295456
H       -0.62264859      -2.45592969       0.64226336
C        1.78714474       0.01002794       0.00389507
H        2.44202412       0.67113390       0.66197326
H        2.45385902      -0.65136977      -0.64189061
C        0.91606151      -0.90478549       0.90901405
