85
Properties=species:S:1:pos:R:3 pbc="F F F"
C        0.00000000       0.00000000       0.00000000
C        0.91738189       0.91738189      -0.91738189
C        0.40147110       0.88170135      -2.34694763
C        1.31800308       1.62116978      -3.31900568
Br       0.66032402       1.31499788      -5.14079430
N        1.32649581       3.04959528      -3.13818568
C        2.22156606       3.66450059      -2.30543043
O        3.03570510       3.06293194      -1.61710485
C        2.10848713       5.14752273      -2.26828797
C        1.90178160       5.84472502      -0.94393150
C        3.21158590       5.98453351      -1.66435697
H        1.93238825       0.52099594      -0.83247374
H        0.86587965       1.91670255      -0.47945541
H       -0.61204201       1.30456339      -2.38169741
H        0.30651413      -0.16572015      -2.66584913
H        2.33837110       1.22465216      -3.29468566
H        0.67844116       3.59667389      -3.68686747
H        1.60529794       5.58962723      -3.12365992
H        1.88878792       5.24510710      -0.03975973
H        1.24247042       6.70410981      -0.91680300
H        3.44046337       6.93569633      -2.13012379
H        4.07579588       5.47788537      -1.24701140
C       -0.91738189      -0.91738189      -0.91738189
C       -1.80654489      -1.78368834      -0.03988685
C       -2.61275666      -2.79997103      -0.84545085
Br      -3.54038041      -3.98625101       0.41051522
N       -3.64099126      -2.21036176      -1.66292374
C       -3.40356995      -1.83159433      -2.95633279
O       -2.30873650      -1.90852857      -3.49847683
C       -4.58908450      -1.27387791      -3.66133542
C       -4.50545321       0.09981597      -4.28480090
C       -4.58176301      -1.11508689      -5.16362647
H       -0.23919922      -1.51123130      -1.53542742
H       -1.49058358      -0.22902708      -1.54242696
H       -2.47866906      -1.14270788       0.54715814
H       -1.17891384      -2.31612570       0.68839641
H       -1.96474098      -3.44446472      -1.44850321
H       -4.56668689      -2.12816604      -1.26712960
H       -5.54802321      -1.54311899      -3.22744289
H       -3.55972940       0.63007934      -4.24400469
H       -5.37717041       0.74069585      -4.22690867
H       -5.50514463      -1.30244419      -5.69869467
H       -3.68891358      -1.40210294      -5.70967614
C       -0.91738189       0.91738189       0.91738189
C       -0.05284710       1.93947697       1.63779601
C       -0.84238377       2.76310328       2.65269148
Br       0.41945855       3.87874773       3.65682702
N       -1.78465953       3.67368604       2.05593119
C       -3.07913655       3.30775621       1.80460431
O       -3.52146517       2.18485973       2.00941699
C       -3.92022345       4.38583986       1.21823452
C       -4.63765016       4.14160632      -0.08881834
C       -5.42448975       4.25079224       1.18519438
H       -1.43012368       0.24542845       1.61030580
H       -1.63837277       1.38234301       0.24132185
H        0.42599501       2.59914858       0.90106522
H        0.76332709       1.41542198       2.15454823
H       -1.33885640       2.12645592       3.39239659
H       -1.47417175       4.61691496       1.87089582
H       -3.54780745       5.39405912       1.37671852
H       -4.55940322       3.16116674      -0.54691521
H       -4.70109269       4.95923015      -0.79693960
H       -6.01819249       5.14296572       1.34512529
H       -5.87136355       3.34566541       1.58366370
C        0.91738189      -0.91738189       0.91738189
C        2.34297602      -0.89737602       0.38976804
C        3.25530627      -1.87257119       1.13030109
Br       4.99061724      -1.90769918       0.21779979
N        3.53319645      -1.49061294       2.49046738
C        2.74969866      -1.91111465       3.53068376
O        1.73793631      -2.58604847       3.39175712
C        3.20531580      -1.44937082       4.86961122
C        2.25191957      -0.68251055       5.75600800
C        2.65339463      -2.08111522       6.12596652
H        0.47851202      -1.91797071       0.88937521
H        0.83842802      -0.49995143       1.92365817
H        2.74358424       0.12368925       0.45432380
H        2.33146912      -1.15397182      -0.67879782
H        2.87093511      -2.89706129       1.08971251
H        4.36059403      -0.93768863       2.66369986
H        4.24851705      -1.15017259       4.91989545
H        1.23499370      -0.52789732       5.41076373
H        2.64931905       0.13358210       6.34764627
H        3.32611472      -2.21549908       6.96466969
H        1.90913618      -2.86468867       6.02686780
