173
Properties=species:S:1:pos:R:3 pbc="F F F"
C        0.00000000       0.00000000       0.00000000
C        0.91457841       0.91457841      -0.91457841
C        2.26528282       0.24541869      -1.13303797
C        3.14914111       1.07044048      -2.08646346
H        2.55790058       1.24611870      -2.99471016
C        4.44842533       0.31293384      -2.51307733
H        4.16694904      -0.71448456      -2.77896313
N        5.42373115       0.25278654      -1.42316313
C        5.50346954      -0.80168830      -0.55129336
O        4.71381082      -1.73472582      -0.52507759
C        6.65309580      -0.72269699       0.39383902
C        6.44636372      -0.98376854       1.86685235
C        7.20095616      -1.97825669       1.03217994
C        5.08139714       0.96973670      -3.76238463
C        6.13823101       0.11229450      -4.44708894
N        3.45494306       2.36559644      -1.47873144
C        3.39385780       3.54001342      -2.18355344
O        3.11171024       3.61947259      -3.37086431
C        3.72461857       4.74331650      -1.37554535
C        5.00510551       5.49799544      -1.64070828
C        3.68668406       6.11993327      -1.99746401
H        1.00492674       1.87073627      -0.39189974
H        0.37043494       1.06162107      -1.85159004
H        2.11081976      -0.75499402      -1.55657731
H        2.76323644       0.11288186      -0.16519070
H        6.12897833       0.97861130      -1.38019508
H        7.39802201       0.02871479       0.14590935
H        5.45640213      -1.26603369       2.20837887
H        7.00867424      -0.38632259       2.57457821
H        8.27373500      -2.05187103       1.16588636
H        6.71690952      -2.92358108       0.81039845
H        4.28383068       1.13480139      -4.49768498
H        5.49344014       1.95513083      -3.51352458
H        6.30526204       0.46084553      -5.47073433
H        5.87493132      -0.94835146      -4.47206711
H        3.82765573       2.37232998      -0.53799012
H        3.39627329       4.69221996      -0.34125968
H        5.64017090       5.17071383      -2.45667570
H        5.54226201       5.90557641      -0.79235695
H        3.32194996       6.93917924      -1.38934441
H        3.43195134       6.20483467      -3.04894960
C        7.42245577       0.22893443      -3.80618184
C        8.49799400       0.32662038      -3.26942215
Br      10.23704835       0.48457029      -2.40152711
C       -0.91457841      -0.91457841      -0.91457841
C       -0.58260671      -0.67885806      -2.38227471
C       -1.39683681      -1.61348984      -3.29571840
H       -1.22948688      -2.63615107      -2.93309148
C       -0.92634365      -1.56241385      -4.78567901
H        0.17062976      -1.60818456      -4.79387280
N       -1.33751438      -0.32023100      -5.44193543
C       -0.53586460       0.78953886      -5.50674886
O        0.54285625       0.89377690      -4.94079574
C       -1.09402048       1.89431810      -6.33685742
C       -1.09043725       3.31249847      -5.81780405
C       -0.17475124       2.92865965      -6.94442793
C       -1.45796155      -2.78436419      -5.57119273
C       -0.77918483      -3.00060077      -6.91782886
N       -2.82194664      -1.30787607      -3.16944822
C       -3.77537141      -2.28652978      -3.05552348
O       -3.53982953      -3.48642023      -3.07579739
C       -5.16024152      -1.76304185      -2.92019706
C       -6.14754323      -1.94906962      -4.04719639
C       -6.32746980      -2.71025230      -2.76635925
H       -1.94698721      -0.64617620      -0.67439933
H       -0.72638694      -1.94766691      -0.60959220
H        0.48809405      -0.85509090      -2.54540620
H       -0.77892445       0.37040532      -2.63278987
H       -2.21262428      -0.32311149      -5.95204895
H       -1.94498355       1.61776747      -6.95361138
H       -0.63943041       3.50855289      -4.85111205
H       -1.94127173       3.94234731      -6.04884901
H       -0.40585662       3.28954655      -7.93966753
H        0.88742696       2.86292466      -6.73328161
H       -1.26266964      -3.68222761      -4.97141980
H       -2.54509820      -2.71772219      -5.69927516
H       -0.94569585      -4.02410580      -7.26704025
H        0.29614760      -2.80639893      -6.88839563
H       -3.11255942      -0.34497474      -3.28044168
H       -5.23600616      -0.83783160      -2.35591517
H       -5.83611157      -2.50956307      -4.92188578
H       -6.84066077      -1.14281455      -4.25672005
H       -7.13140078      -2.41757319      -2.10149963
H       -6.13137583      -3.77756538      -2.77679439
C       -1.34615217      -2.16609497      -7.94532490
C       -1.82098733      -1.46719637      -8.80585283
Br      -2.58875561      -0.33713643     -10.19725371
C       -0.91457841       0.91457841       0.91457841
C       -0.46920108       2.36717783       0.80736057
C       -1.39050237       3.29487515       1.62066753
H       -2.41742728       3.09123344       1.29006872
C       -1.10619429       4.80962123       1.35862099
H       -1.00652893       4.95057946       0.27431921
N        0.13887886       5.24539383       1.99316585
C        1.34413130       5.25647854       1.34072737
O        1.52268916       4.81035763       0.21649412
C        2.45476112       5.86443368       2.12688724
C        3.79153182       5.16790266       2.21937199
C        3.66394637       6.43340975       1.42105613
C       -2.28814515       5.68170910       1.84366422
C       -2.25631192       7.11446816       1.32683437
N       -1.29099411       2.96564354       3.04263329
C       -2.39272392       2.87146157       3.85323917
O       -3.54091913       3.07594244       3.48518558
C       -2.07446974       2.50941048       5.25960020
C       -2.25667683       3.52923336       6.35789905
C       -3.17788123       2.34707720       6.27912292
H       -0.81341254       0.52349470       1.93065551
H       -1.94237072       0.77146736       0.56980796
H       -0.48351025       2.67474888      -0.24585608
H        0.56715102       2.45359653       1.15486348
H        0.08034645       5.64680226       2.92132890
H        2.14227329       6.40950430       3.01359645
H        3.93186085       4.24256895       1.67128146
H        4.32688631       5.21441426       3.16024547
H        4.10410774       7.33928845       1.82079690
H        3.71402222       6.35699733       0.33995487
H       -3.21596318       5.23144771       1.46890615
H       -2.35020767       5.67333078       2.93855709
H       -3.24548655       7.57319482       1.41816052
H       -1.92755834       7.18442159       0.28666704
H       -0.36817274       2.91510124       3.45470185
H       -1.23871011       1.82378393       5.36725889
H       -2.66654025       4.49994357       6.10107660
H       -1.52944962       3.54967675       7.16106900
H       -3.07198956       1.56109944       7.01738459
H       -4.20184925       2.51993041       5.96395594
C       -1.39011600       7.95117748       2.11627856
C       -0.66467691       8.65192155       2.77743806
Br       0.50829674       9.78496543       3.84647706
C        0.91457841      -0.91457841       0.91457841
C        0.05483331      -1.92169534       1.66721083
C        0.92178869      -2.88115155       2.50310480
H        1.66510393      -3.31324748       1.82037803
C        0.09999373      -4.06453672       3.10990605
H       -0.55073049      -4.46216501       2.31999309
N       -0.74538939      -3.62421880       4.22085141
C       -2.05312416      -3.24737999       4.05881877
O       -2.60896058      -3.13773970       2.97538347
C       -2.76723417      -2.96720257       5.33659140
C       -3.60568179      -1.71957647       5.48184814
C       -4.27412266      -3.06196720       5.40267498
C        1.03825455      -5.20492119       3.57034273
C        0.32475530      -6.52125552       3.85160363
N        1.63047986      -2.12967432       3.53911676
C        2.95543369      -2.33997701       3.82201395
O        3.65558671      -3.17681682       3.26964361
C        3.48727511      -1.46022617       4.89597915
C        3.85867559      -2.04973840       6.23539526
C        4.93573947      -1.55181856       5.31652331
H        1.44383251      -0.23530432       1.58842592
H        1.63328118      -1.40102422       0.24934065
H       -0.53817490      -2.50170145       0.94887650
H       -0.65228139      -1.38379954       2.30979083
H       -0.36942648      -3.69873476       5.15847644
H       -2.24702890      -3.29530951       6.23254684
H       -3.70460681      -1.06014060       4.62645577
H       -3.60213289      -1.21120892       6.43869740
H       -4.71700592      -3.46902776       6.30395576
H       -4.81640440      -3.30452617       4.49480822
H        1.75407903      -5.40026488       2.76197314
H        1.62289299      -4.89448150       4.44472105
H        1.03997397      -7.34931525       3.84755267
H       -0.47067333      -6.73608983       3.13323047
H        1.08948001      -1.51493281       4.13356301
H        3.06348743      -0.45999301       4.90627249
H        3.77415057      -3.12244557       6.37096428
H        3.64610222      -1.46888017       7.12521299
H        5.44667971      -0.63127064       5.57252326
H        5.56937624      -2.28634638       4.83001299
C       -0.25714302      -6.54615496       5.16856010
C       -0.74448287      -6.56700824       6.27151115
Br      -1.53247018      -6.60072622       8.05488971
