181
Properties=species:S:1:pos:R:3 pbc="F F F"
C        0.00000000       0.00000000       0.00000000
C        0.91544387       0.91544387      -0.91544387
C        0.09009034       2.05837906      -1.48823508
C        0.91923624       2.95583525      -2.41768652
H        1.36329217       2.33003826      -3.20196174
N        0.07638567       3.94526794      -3.05977959
C       -0.57070315       3.68002589      -4.23896517
O       -0.47602118       2.62659535      -4.85399009
C       -1.39403335       4.81118097      -4.74886104
C       -1.09230315       5.39264803      -6.11100176
C       -2.35465204       4.60918612      -5.89718828
C        1.97122103       3.64421139      -1.70733621
C        2.83827170       4.21158145      -1.12186161
C        3.95822954       4.98109620      -0.41360462
C        4.83324687       5.61333749       0.11663097
C        5.89337980       6.40997321       0.75890674
H        5.59454397       6.62543468       1.79282902
N        6.01624204       7.65835860       0.03262254
C        6.33077587       8.83496985       0.66164608
O        6.52151192       8.94083980       1.86590385
C        6.48747748       9.99544212      -0.25797937
C        6.59912294      11.40112224       0.28450134
C        7.80844365      10.73016142      -0.29791622
C        7.21399448       5.62487105       0.76864213
C        8.30274783       6.31776139       1.57298162
Br       9.89519364       5.18946971       1.62016953
H        1.32096544       0.26815437      -1.69781172
H        1.72748807       1.26443880      -0.27206882
H       -0.34362265       2.65476411      -0.67369376
H       -0.76118682       1.64576966      -2.04620856
H       -0.07735161       4.82857926      -2.59355259
H       -1.71856703       5.51727426      -3.98999986
H       -0.31197147       4.93208875      -6.70798644
H       -1.17451482       6.46542925      -6.23778048
H       -3.29375978       5.14902134      -5.87434775
H       -2.42196509       3.62402863      -6.34716643
H        5.94891506       7.63684177      -0.97591772
H        5.96033838       9.90375405      -1.20349908
H        6.56620078      11.54405203       1.35961966
H        6.13767501      12.20214786      -0.28098089
H        8.17078036      11.07725571      -1.25835053
H        8.59091994      10.42524661       0.38936329
H        7.03579196       4.62594883       1.19060589
H        7.56240059       5.46259249      -0.26081221
H        8.00929388       6.48312286       2.61304179
H        8.62476988       7.25897103       1.12136751
C       -0.91544387      -0.91544387      -0.91544387
C       -2.37318460      -0.51002687      -0.75349301
C       -3.31094776      -1.39294047      -1.58886979
H       -3.13828275      -2.44145422      -1.31555520
N       -4.69750010      -1.07982978      -1.30410332
C       -5.37566338      -1.69120154      -0.28142299
O       -4.89659327      -2.55205467       0.44408369
C       -6.78814462      -1.24314787      -0.13471617
C       -7.90328653      -2.25677648      -0.25128363
C       -7.59834642      -1.63275430       1.07937835
C       -3.08776415      -1.22894526      -3.00605923
C       -2.90382036      -1.09377681      -4.17411759
C       -2.72119428      -0.94362130      -5.68811479
C       -2.61511027      -0.83374566      -6.88109747
C       -2.50985079      -0.69079067      -8.34380481
H       -2.18319126       0.33121035      -8.57516871
N       -3.82699615      -0.90537565      -8.90960629
C       -4.25865092      -0.22617080     -10.01927791
O       -3.59362740       0.61143061     -10.61425108
C       -5.60798423      -0.63480459     -10.49811014
C       -6.32791988       0.16830244     -11.55612639
C       -5.75836383      -1.17628770     -11.90186976
C       -1.48181998      -1.68734938      -8.90105404
C       -1.19679941      -1.47161324     -10.37911496
Br       0.20039307      -2.70535741     -10.95952947
H       -0.73792564      -1.94761933      -0.60138657
H       -0.55119918      -0.77605828      -1.93673823
H       -2.50306069       0.54598824      -1.02776279
H       -2.65354591      -0.58314170       0.30589620
H       -5.15138832      -0.35326125      -1.84013067
H       -6.99724471      -0.25564745      -0.53581493
H       -7.64036637      -3.30074993      -0.38698741
H       -8.81386132      -1.95818867      -0.75664491
H       -8.29853196      -0.90754674       1.47646939
H       -7.12983769      -2.25462763       1.83523535
H       -4.40479391      -1.63750757      -8.51937307
H       -6.24602694      -1.08109375      -9.74047082
H       -5.83675229       1.04708219     -11.96096305
H       -7.40471195       0.26189023     -11.47798203
H       -6.44852667      -1.99626254     -12.06159738
H       -4.88385750      -1.19895435     -12.54399141
H       -0.54411046      -1.59080188      -8.33622257
H       -1.83012265      -2.71684804      -8.73883461
H       -0.82699163      -0.46426741     -10.58811591
H       -2.06101042      -1.69092257     -11.01044041
C       -0.91544387       0.91544387       0.91544387
C       -0.08028948       1.52385141       2.03256359
C       -0.92689488       2.38985503       2.97600810
H       -1.75445126       1.78048977       3.36035113
N       -0.13796540       2.83599888       4.10746892
C       -0.02350249       2.07962216       5.24516326
O       -0.58309891       1.00514815       5.41631719
C        0.82850457       2.69372972       6.30078351
C        0.23196560       2.98453548       7.65877676
C        1.25320586       1.89453336       7.51039486
C       -1.46368821       3.55171024       2.30737019
C       -1.90611370       4.50932337       1.75627769
C       -2.48495441       5.76748578       1.10049018
C       -2.93741817       6.77280966       0.61972557
C       -3.47801598       8.01852426       0.04790603
H       -2.79836474       8.36848501      -0.73970012
N       -3.52787446       9.01010409       1.10399954
C       -3.30328382      10.34025861       0.86055721
O       -3.03564955      10.80171841      -0.24092009
C       -3.47214340      11.21570202       2.05305354
C       -3.03653133      12.66195491       2.01725760
C       -4.49883225      12.32504251       2.01264653
C       -4.86597542       7.76405804      -0.55981006
C       -5.40262686       8.96605665      -1.32115590
Br      -7.10933662       8.50363359      -2.14847640
H       -1.71281008       0.27384851       1.30027295
H       -1.34257137       1.67085593       0.25056838
H        0.74097798       2.11768287       1.60813034
H        0.39586631       0.71863401       2.60802370
H        0.38156740       3.69907261       4.02727502
H        1.55911430       3.41054870       5.93727269
H       -0.79451013       2.68703281       7.84656078
H        0.53010518       3.89599613       8.16280395
H        2.24583449       2.06618775       7.90925605
H        0.91402469       0.86731170       7.59594295
H       -3.81895213       8.71620202       2.02652040
H       -3.34272301      10.71591211       3.00895639
H       -2.60155155      13.04791380       1.10116780
H       -2.61353505      13.08770388       2.91956482
H       -5.07055647      12.52456270       2.91126742
H       -5.04701842      12.48917321       1.09061164
H       -4.80846462       6.90350067      -1.24083038
H       -5.57572177       7.48040210       0.22968141
H       -4.73822099       9.27403557      -2.13288161
H       -5.61492440       9.81640956      -0.66896057
C        0.91544387      -0.91544387       0.91544387
C        2.11899157      -0.11931257       1.39840034
C        3.06331374      -0.97105329       2.25839099
H        3.35559815      -1.85773045       1.68196356
N        4.26771509      -0.23184243       2.58187569
C        5.35845664      -0.23849428       1.75133699
O        5.42445683      -0.87287112       0.70723631
C        6.50215711       0.57878760       2.24263915
C        7.83712415      -0.08621660       2.48800590
C        7.68074401       0.87380646       1.34478481
C        2.44034031      -1.39081616       3.49161218
C        1.92688524      -1.73678432       4.50804520
C        1.32042303      -2.19336238       5.83914495
C        0.87951382      -2.55099725       6.89944233
C        0.35821305      -2.97573261       8.21050061
H       -0.36171935      -2.22592893       8.56294005
N        1.47176304      -3.03358862       9.13662643
C        1.32993078      -2.71248043      10.46168843
O        0.27941864      -2.34570679      10.97132244
C        2.56445776      -2.90488496      11.27155625
C        2.64995233      -2.38004854      12.68574296
C        2.53373662      -3.85682045      12.44596421
C       -0.34874361      -4.33402244       8.08494457
C       -1.06142211      -4.74512931       9.36382041
Br      -2.02021693      -6.41929218       9.06541856
H        1.20795783      -1.77405923       0.30491447
H        0.27639568      -1.25113720       1.73646281
H        1.78537816       0.76276706       1.96222413
H        2.66873594       0.26799895       0.53005441
H        4.27604828       0.34373534       3.41246731
H        6.23169696       1.37413279       2.93114293
H        7.94181468      -1.13906396       2.24722507
H        8.41692201       0.23366997       3.34544288
H        8.15004813       1.84691833       1.42647951
H        7.67807694       0.46744568       0.33859871
H        2.35354365      -3.40175531       8.80637560
H        3.49181175      -2.86904180      10.70673797
H        1.78940821      -1.86333608      13.09788886
H        3.60236193      -1.99158518      13.02685665
H        3.40673666      -4.47270446      12.62694546
H        1.59252879      -4.33253004      12.70174444
H       -1.07970212      -4.28500938       7.26582765
H        0.37555219      -5.10985976       7.80039334
H       -1.80905316      -4.01150754       9.67692058
H       -0.36932566      -4.94705004      10.18464901
