98
Properties=species:S:1:pos:R:3 pbc="F F F"
C        1.79208602       1.79208602      -1.79208602
C        1.50635546       3.14836396      -1.91461782
C        2.31238684       3.95439064      -2.72098294
C        3.40879689       3.41087505      -3.41006478
C        4.22707126       4.20983655      -4.22441118
C        5.31052438       3.64835626      -4.89958506
C        5.59629562       2.29216535      -4.77698946
C        4.79053915       1.48642118      -3.97029629
C        3.69416892       2.02976545      -3.28089482
C        2.87570639       1.23073361      -2.46692185
H        0.66257170       3.58839874      -1.38975015
H        2.07674736       5.01319956      -2.80711287
H        4.01800708       5.27169757      -4.33134505
H        6.44000719       1.85207222      -5.30201677
H        5.02599300       0.42735015      -3.88391768
H        3.08494169       0.16897385      -2.35981987
C        6.14138183       4.47960390      -5.73163268
C        6.83722495       5.17577379      -6.42847257
Br       7.96234442       6.30142164      -7.55520374
C       -1.79208602      -1.79208602      -1.79208602
C       -1.29791165      -3.00213145      -2.26929414
C       -2.10401958      -3.80809714      -3.07564369
C       -3.40870345      -3.41055225      -3.41048101
C       -4.22962770      -4.21107348      -4.22061781
C       -5.52205705      -3.79595595      -4.54045269
C       -6.01623991      -2.58601470      -4.06319583
C       -5.21026873      -1.78044173      -3.25654617
C       -3.90558186      -2.17789037      -2.92135695
C       -3.08457523      -1.37719073      -2.11159589
H       -0.29108911      -3.32788576      -2.02174572
H       -1.70403964      -4.75164036      -3.44137979
H       -3.85922674      -5.15974953      -4.60207344
H       -7.02304030      -2.26015893      -4.31089694
H       -5.61006277      -0.83665128      -2.89054678
H       -3.45508318      -0.42868117      -1.72997105
C       -6.35311291      -4.62696843      -5.37253708
C       -7.04912219      -5.32294137      -6.06940775
Br      -8.17451034      -6.44827076      -7.19618869
C       -1.79208602       1.79208602       1.79208602
C       -2.96393159       1.27227924       2.33312642
C       -3.77015466       2.07855988       3.13904587
C       -3.41108095       3.40905822       3.40959754
C       -4.21272279       4.23073440       4.21786179
C       -3.83641885       5.54920797       4.47283887
C       -2.66458726       6.06896273       3.93190044
C       -1.85829210       5.26250696       3.12645757
C       -2.21703868       3.93185069       2.85593981
C       -1.41562458       3.11036465       2.04737261
H       -3.25959826       0.24526765       2.13585467
H       -4.68352455       1.65833338       3.55520186
H       -5.13183217       3.84049396       4.64872357
H       -2.36899425       7.09606967       4.12903226
H       -0.94464294       5.68252605       2.71009184
H       -0.49643607       3.50054727       1.61675207
C       -4.66826199       6.38082122       5.30353521
C       -5.36493062       7.07729731       5.99924339
Br      -6.49138487       8.20344025       7.12414467
C        1.79208602      -1.79208602       1.79208602
C        2.99226542      -1.29069556       2.28637626
C        3.79847846      -2.09698440       3.09229756
C        3.41109448      -3.40910004       3.40954220
C        4.21237708      -4.23058116       4.21836075
C        3.80766770      -5.53062312       4.52017488
C        2.60750653      -6.03195921       4.02598469
C        1.80123952      -5.22548041       3.22053669
C        2.18830187      -3.91319691       2.90333041
C        1.38723321      -3.09192038       2.09420825
H        3.31009370      -0.27807585       2.05255104
H        4.73418711      -1.69127418       3.47159850
H        5.15341701      -3.85459508       4.61303761
H        2.28974536      -7.04468006       4.25967075
H        0.86525158      -5.63098128       2.84102797
H        0.44612250      -3.46783992       1.69977298
C        4.63948507      -6.36226768       5.35086566
C        5.33613211      -7.05877001       6.04656920
Br       6.46255146      -8.18495536       7.17146297
C       -0.00445707       0.01189536      -1.78238275
H       -0.66409135       0.67374010      -2.43557963
H        0.65740317      -0.63156657      -2.45157240
C       -0.90989263      -0.90692880      -0.91072765
C        0.90977584       0.90977584      -0.90977584
C       -0.00465871       1.77757030       0.00794375
H       -0.66225468       2.44313916      -0.64384735
H        0.64322798       2.43503045       0.67728295
C       -1.78241447       0.00034974      -0.00472694
H       -2.45427497      -0.65498947       0.64260836
H       -2.43311707       0.67328779      -0.65473579
C       -0.91132561       0.90220522       0.91563759
C       -0.01476271      -0.02253852       1.78660255
H       -0.67934791      -0.69751639       2.42135241
H        0.63392994       0.61504881       2.47327442
C        0.01484550      -1.77751727      -0.01636693
H        0.67870853      -2.42144646      -0.68295456
H       -0.62264859      -2.45592969       0.64226336
C        1.78714474       0.01002794       0.00389507
H        2.44202412       0.67113390       0.66197326
H        2.45385902      -0.65136977      -0.64189061
C        0.91606151      -0.90478549       0.90901405
