77
Properties=species:S:1:pos:R:3 pbc="F F F"
C        0.00000000       0.00000000       0.00000000
C        0.88218200       0.88218200      -0.88218200
C        0.59645144       2.23845994      -1.00471379
C        1.40248282       3.04448661      -1.81107891
C        2.49889286       2.50097102      -2.50016076
C        3.31716724       3.29993252      -3.31450716
C        4.40062035       2.73845224      -3.98968103
C        4.68639159       1.38226133      -3.86708544
C        3.88063512       0.57651716      -3.06039227
C        2.78426489       1.11986142      -2.37099079
C        1.96580236       0.32082959      -1.55701782
H       -0.24733232       2.67849471      -0.47984612
H        1.16684334       4.10329554      -1.89720885
H        3.10810306       4.36179354      -3.42144103
H        5.53010316       0.94216819      -4.39211274
H        4.11608898      -0.48255388      -2.97401366
H        2.17503767      -0.74093018      -1.44991584
C        5.23147781       3.56969987      -4.82172866
C        5.92732092       4.26586977      -5.51856855
Br       7.05244039       5.39151761      -6.64529971
C       -0.88218200      -0.88218200      -0.88218200
C       -0.32137521      -1.55469455      -1.96355540
C       -1.12763072      -2.36061155      -2.76980607
C       -2.49904567      -2.49985524      -2.50112374
C       -3.32113820      -3.30656771      -3.30390101
C       -4.68063125      -3.42983401      -3.01828836
C       -5.24139360      -2.75742785      -1.93691691
C       -4.43500837      -1.95199181      -1.13054437
C       -3.06346391      -1.81276704      -1.39888616
C       -2.24151845      -1.00575774      -0.59637358
H        0.73767092      -1.46021724      -2.18846219
H       -0.67508840      -2.88041178      -3.61184755
H       -2.89916347      -3.83918978      -4.15298437
H       -6.30051752      -2.85176492      -1.71210167
H       -4.88734851      -1.43197600      -0.28822424
H       -2.66346137      -0.47337331       0.25281134
C       -5.51215234      -4.26055478      -3.85019922
C       -6.20855126      -4.95628343      -4.54692456
Br      -7.33456940      -6.08121780      -5.67347052
C       -0.88218200       0.88218200       0.88218200
C       -2.01503143       1.48281602       0.34177772
C       -2.82098093       2.28915354       1.14791387
C       -2.50051372       2.50070703       2.49880389
C       -3.30190009       3.30936169       3.32034514
C       -2.96408126       3.50552608       4.65914628
C       -1.83133951       2.90485084       5.19954801
C       -1.02581200       2.09823484       4.39349771
C       -1.34620794       1.88632427       3.04258490
C       -0.54461153       1.07803567       2.22100257
H       -2.28044346       1.33177920      -0.70121415
H       -3.70367183       2.75219295       0.71148294
H       -4.19082592       3.78634975       2.91416196
H       -1.56581418       3.05603343       6.24253649
H       -0.14287963       1.63492793       4.82974120
H        0.34412875       0.60088436       2.62726773
C       -3.79502183       4.33760172       5.49028280
C       -4.49093455       5.03446506       6.18635963
Br      -5.61616657       6.16123416       7.31185699
C        0.88218200      -0.88218200       0.88218200
C        2.08812117      -0.38494967       1.36655433
C        2.89433206      -1.19124021       2.17247607
C        2.50119297      -2.49920510       2.49962657
C        3.30240227      -3.32064176       3.30856289
C        2.89191834      -4.61652178       3.62031349
C        1.68599830      -5.11369927       3.13604079
C        0.87973731      -4.30721572       2.33059152
C        1.27255597      -2.99908087       2.00348027
C        0.47155764      -2.17785181       1.19424032
H        2.41045460       0.62442042       1.12497433
H        3.83458183      -0.78880759       2.54395830
H        4.24790030      -2.94787411       3.69556322
H        1.36373057      -6.12317170       3.37748183
H       -0.06079173      -4.70943856       1.95890192
H       -0.47400936      -2.55055110       0.80748159
C        3.72373013      -5.44817290       4.45100331
C        4.42037250      -6.14468071       5.14670603
Br       5.54678430      -7.27087494       6.27159848
