105
Properties=species:S:1:pos:R:3 pbc="F F F"
C        0.00000000       0.00000000       0.00000000
C        1.67487462       3.14075974      -6.85668620
C        2.44061113       2.28726105      -7.85337510
C        2.68345098       0.84700707      -7.39336920
C        3.71231629       0.69196308      -6.27253880
O        3.29743228       1.28865603      -5.03456184
C        2.42064373       0.58228699      -4.29256255
O        1.92758555      -0.48480855      -4.63251404
C        2.10546518       1.21584211      -2.97310663
C        1.27163727       0.43330730      -2.14362285
C        0.88122679       0.88122679      -0.88122679
C        1.29641840       2.12130169      -0.41974525
C        2.12192057       2.90733148      -1.22273818
C        2.54122364       2.46165667      -2.48956232
Br       3.71533341       3.66335265      -3.38193070
H        1.35030465       4.07298433      -7.32895948
H        2.30318750       3.41500857      -6.00932128
H        0.78804398       2.62174183      -6.48155638
H        3.39299638       2.77162668      -8.09885195
H        1.85782025       2.25053442      -8.78173756
H        3.04460081       0.27637026      -8.25798621
H        1.72680345       0.40253427      -7.09785669
H        4.65317663       1.17404816      -6.56060786
H        3.94518141      -0.36851320      -6.11252898
H        0.92778483      -0.54330422      -2.48327175
H        0.99399144       2.48332909       0.55981342
H        2.44395107       3.87627281      -0.84315328
C       -6.50526495      -4.00057023      -1.16648538
C       -6.57835613      -5.40680686      -0.59608429
C       -5.36603917      -5.80720692       0.24941884
C       -4.08066783      -6.05473969      -0.54141065
O       -3.56921963      -4.87385926      -1.17757126
C       -2.88937913      -4.01540841      -0.39070573
O       -2.73643870      -4.15425489       0.81540254
C       -2.30249402      -2.85660730      -1.13531259
C       -1.49969881      -2.00877450      -0.34009412
C       -0.88122679      -0.88122679      -0.88122679
C       -1.05745453      -0.56103994      -2.21897086
C       -1.84413150      -1.38698947      -3.02086927
C       -2.45805837      -2.53873633      -2.49564794
Br      -3.42735921      -3.55220425      -3.78105330
H       -7.47937959      -3.70495653      -1.56791234
H       -5.79214390      -3.94636914      -1.98900432
H       -6.21565410      -3.27231595      -0.40337214
H       -6.72730727      -6.12733870      -1.40882906
H       -7.46814252      -5.46446298       0.04251328
H       -5.61754187      -6.73665613       0.77524074
H       -5.20093405      -5.04367075       1.01741040
H       -4.26527225      -6.78996818      -1.33259222
H       -3.31012951      -6.48802283       0.10895516
H       -1.34774135      -2.23495962       0.71494861
H       -0.58518191       0.31809229      -2.65041748
H       -1.96777065      -1.12470951      -4.07089700
C       -1.10236934       6.42659066       4.14336057
C       -0.56859308       6.44701842       5.56563578
C        0.23342574       5.20206071       5.95519228
C       -0.59749754       3.93252603       6.14679460
O       -1.21467610       3.46988778       4.93608627
C       -0.42304223       2.79186109       4.08058996
O        0.77439587       2.60264600       4.24704092
C       -1.15118048       2.25619866       2.88703477
C       -0.35473487       1.45479840       2.03903416
C       -0.88122679       0.88122679       0.88122679
C       -2.20467219       1.10207242       0.53072072
C       -3.00762501       1.88812512       1.35624010
C       -2.49780949       2.45694737       2.53768577
Br      -3.78418634       3.43365658       3.54277385
H       -1.46976365       7.41870325       3.86378156
H       -1.94166152       5.73772429       4.04813155
H       -0.32769672       6.13571973       3.42792574
H       -1.39636691       6.59888074       6.26822736
H        0.09148151       7.31732136       5.66425238
H        0.74030009       5.41457310       6.90468425
H        1.01721840       5.03640571       5.20800709
H       -1.40318072       4.11904301       6.86560892
H        0.02029902       3.13345521       6.57604100
H        0.68940277       1.26835688       2.28879825
H       -2.62443427       0.66505947      -0.37198664
H       -4.04651999       2.04708584       1.06977132
C        6.93256393      -1.92793190       2.81182473
C        7.82067741      -2.80990006       1.95066981
C        7.25173471      -3.11088945       0.56120310
C        6.06115945      -4.07064551       0.54501321
O        4.89383474      -3.53803456       1.18878085
C        4.16260116      -2.65958660       0.47330550
O        4.46093826      -2.25765461      -0.64330182
C        2.91037426      -2.21855480       1.16548486
C        2.08428139      -1.38181991       0.38246612
C        0.88122679      -0.88122679       0.88122679
C        0.47821254      -1.18676198       2.17249082
C        1.27867571      -2.01322741       2.96008712
C        2.48448907      -2.54274743       2.46520614
Br       3.37986231      -3.69641384       3.68434062
H        7.48505113      -1.57801904       3.68917829
H        6.06780354      -2.48022963       3.17948419
H        6.57975149      -1.05219348       2.25939722
H        8.03798875      -3.74446265       2.48102362
H        8.77904827      -2.29351996       1.81752400
H        8.05233134      -3.56355260      -0.03692667
H        6.98751261      -2.16627148       0.07341032
H        6.32145236      -4.99670390       1.06967640
H        5.81682711      -4.35797841      -0.48560833
H        2.37903486      -1.12281578      -0.63409828
H       -0.45437071      -0.79793535       2.57394247
H        0.94500208      -2.24832404       3.97005104
