134
Properties=species:S:1:pos:R:3 pbc="F F F"
C        2.58477864       4.05066376      -7.76659023
C        3.35051515       3.19716507      -8.76327912
C        3.59335501       1.75691109      -8.30327323
C        4.62222031       1.60186711      -7.18244283
O        4.20733631       2.19856005      -5.94446586
C        3.33054776       1.49219101      -5.20246657
O        2.83748958       0.42509548      -5.54241807
C        3.01536920       2.12574613      -3.88301066
C        2.18154129       1.34321132      -3.05352688
C        1.79113082       1.79113082      -1.79113082
C        2.20632242       3.03120571      -1.32964927
C        3.03182460       3.81723550      -2.13264221
C        3.45112767       3.37156070      -3.39946635
H        2.26020868       4.98288835      -8.23886350
H        3.21309152       4.32491260      -6.91922531
H        1.69794801       3.53164585      -7.39146040
H        4.30290041       3.68153071      -9.00875598
H        2.76772428       3.16043844      -9.69164158
H        3.95450483       1.18627428      -9.16789023
H        2.63670747       1.31243829      -8.00776072
H        5.56308066       2.08395218      -7.47051188
H        4.85508543       0.54139082      -7.02243301
H        1.83768885       0.36659980      -3.39317578
H        1.90389547       3.39323311      -0.35009060
H        3.35385510       4.78617683      -1.75305730
C        4.33988092       4.28119559      -4.07495285
C        5.08421177       5.04301481      -4.64067280
Br       6.28773180       6.27481206      -5.55539410
C       -7.59821210      -4.52664741      -2.27717312
C       -7.81487823      -5.87817429      -1.61790683
C       -6.69704886      -6.29750399      -0.65898648
C       -5.38202638      -6.69141642      -1.33308745
O       -4.74146829      -5.59928185      -2.00961208
C       -4.05575485      -4.73379983      -1.23565066
O       -3.99732782      -4.79286996      -0.01480535
C       -3.33429118      -3.67690660      -2.01292821
C       -2.52762493      -2.82986954      -1.22078503
C       -1.79113082      -1.79113082      -1.79113082
C       -1.85014521      -1.55982961      -3.15720259
C       -2.63868823      -2.38670749      -3.95630659
C       -3.37135880      -3.45101715      -3.39977875
H       -8.51756583      -4.19503215      -2.76936255
H       -6.82786817      -4.58316764      -3.04619361
H       -7.30874582      -3.76546951      -1.54683894
H       -7.96040540      -6.64508502      -2.38769667
H       -8.74851314      -5.82654312      -1.04474804
H       -7.05268839      -7.16568203      -0.09029892
H       -6.52916041      -5.49225412       0.06450805
H       -5.56560601      -7.46887987      -2.08305885
H       -4.69264316      -7.12741169      -0.59885441
H       -2.46622014      -2.98698599      -0.14425829
H       -1.28514190      -0.74996151      -3.61211577
H       -2.66958531      -2.19526821      -5.02823571
C       -4.09101817      -4.23578097      -4.36923022
C       -4.69373288      -4.89302067      -5.18114583
Br      -5.66827160      -5.95572167      -6.49394469
C       -1.74589795       5.95938790       6.69674679
C       -1.79260063       5.40706082       8.11129789
C       -1.54862984       3.89831780       8.20659168
C       -2.69252396       3.02529420       7.68871209
O       -2.91443366       3.15916314       6.27676543
C       -2.06935360       2.48547352       5.47037822
O       -1.11380741       1.82908619       5.86210952
C       -2.41561163       2.59095176       4.01756259
C       -1.60133846       1.80359478       3.17334626
C       -1.79113082       1.79113082       1.79113082
C       -2.78237963       2.57065045       1.21414732
C       -3.59813030       3.35263569       2.03093632
C       -3.43320869       3.36086345       3.42808257
H       -1.70966366       7.05282329       6.71947358
H       -2.63875814       5.68193777       6.13653352
H       -0.86648642       5.60024108       6.15432676
H       -2.75096627       5.66542121       8.57679961
H       -1.01314954       5.91175780       8.69489696
H       -1.39360364       3.65093578       9.26412992
H       -0.61651874       3.65566417       7.68472357
H       -3.62814961       3.30208613       8.18730899
H       -2.51062503       1.97175736       7.93652687
H       -0.81255470       1.18472727       3.60018246
H       -2.93594889       2.57344530       0.13782499
H       -4.37582446       3.95468790       1.56257687
C       -4.38934956       4.18152323       4.12515657
C       -5.19011754       4.86882580       4.70895604
Br      -6.48489163       5.98013592       5.65291041
C        7.65970306      -4.37324419       2.36908538
C        7.93457740      -5.69814787       1.67823408
C        6.85727975      -6.12085135       0.67540822
C        5.53570614      -6.57164092       1.29918319
O        4.84440576      -5.51848964       1.98746681
C        4.15593597      -4.65057110       1.21869827
O        4.13405447      -4.67547051      -0.00452186
C        3.38196151      -3.63788886       2.00427561
C        2.57369835      -2.79131123       1.21326991
C        1.79113082      -1.79113082       1.79113082
C        1.80441525      -1.59838433       3.16437782
C        2.59378120      -2.42553974       3.96238137
C        3.37288444      -3.45178365       3.39748662
H        8.55455276      -4.03015304       2.89725474
H        6.86976045      -4.47419520       3.11327378
H        7.36896440      -3.59953773       1.65255213
H        8.08054168      -6.48283776       2.42980765
H        8.88224044      -5.60317297       1.13439088
H        7.25426421      -6.96150754       0.09289759
H        6.68653076      -5.29984812      -0.02947240
H        5.72056477      -7.36521020       2.03176976
H        4.88058694      -7.00538143       0.53294089
H        2.54760583      -2.91849009       0.13136850
H        1.20319097      -0.81861636       3.62541185
H        2.58851636      -2.26480072       5.03977215
C        4.08733895      -4.24381493       4.36487548
C        4.68569460      -4.90714113       5.17506365
Br       5.65318508      -5.97968349       6.48506939
C       -0.00445707       0.01189536      -1.78238275
H       -0.66409135       0.67374010      -2.43557963
H        0.65740317      -0.63156657      -2.45157240
C       -0.90989263      -0.90692880      -0.91072765
C        0.90977584       0.90977584      -0.90977584
C       -0.00465871       1.77757030       0.00794375
H       -0.66225468       2.44313916      -0.64384735
H        0.64322798       2.43503045       0.67728295
C       -1.78241447       0.00034974      -0.00472694
H       -2.45427497      -0.65498947       0.64260836
H       -2.43311707       0.67328779      -0.65473579
C       -0.91132561       0.90220522       0.91563759
C       -0.01476271      -0.02253852       1.78660255
H       -0.67934791      -0.69751639       2.42135241
H        0.63392994       0.61504881       2.47327442
C        0.01484550      -1.77751727      -0.01636693
H        0.67870853      -2.42144646      -0.68295456
H       -0.62264859      -2.45592969       0.64226336
C        1.78714474       0.01002794       0.00389507
H        2.44202412       0.67113390       0.66197326
H        2.45385902      -0.65136977      -0.64189061
C        0.91606151      -0.90478549       0.90901405
