118
Properties=species:S:1:pos:R:3 pbc="F F F"
C        1.82017528       1.82017528      -1.82017528
C        2.86488783       0.98519019      -2.54587710
C        3.93447078       2.00094899      -2.93693562
C        3.99468230       2.97350714      -1.75713162
C        3.58490586       4.41281919      -1.89976106
C        3.97273335       5.63959990      -2.38909337
C        3.09986598       6.71212288      -2.19168155
C        1.88137495       6.53224658      -1.51002306
C        1.52137027       5.27744889      -1.01106811
C        2.40090751       4.24203882      -1.22274336
C        2.64024982       2.78023706      -0.97191734
H        1.15112783       2.32735059      -2.52341274
H        2.44342101       0.42944869      -3.39000236
H        3.31220552       0.25040486      -1.86252314
H        4.89929052       1.50841849      -3.09623143
H        4.87847555       2.79871958      -1.12933776
H        4.91310130       5.76882339      -2.91206018
H        3.36347901       7.69815827      -2.56831111
H        1.21626172       7.38082032      -1.36785911
H        0.58920916       5.13014263      -0.47843344
H        2.80516584       2.48744820       0.07255496
C        3.61424435       2.59743982      -4.20786195
C        3.34605472       3.09700089      -5.27226275
Br       2.91241476       3.90474888      -6.99330881
C       -1.82017528      -1.82017528      -1.82017528
C       -1.78603662      -3.26518607      -1.34473242
C       -2.25092198      -4.05941826      -2.56201514
C       -1.63909678      -3.32768536      -3.75853891
C       -2.49512431      -2.62635769      -4.77600411
C       -3.32942826      -2.81800805      -5.85399030
C       -3.86910625      -1.67880134      -6.45576281
C       -3.55580633      -0.39361932      -5.97421893
C       -2.69330106      -0.22969962      -4.88688658
C       -2.17984610      -1.37013296      -4.31571062
C       -1.27012455      -1.88542922      -3.23685045
H       -2.83143503      -1.40309139      -1.76736475
H       -2.39191102      -3.42434593      -0.44661511
H       -0.75764007      -3.56574397      -1.10174947
H       -1.90081119      -5.09542564      -2.50770361
H       -0.77357806      -3.86622082      -4.16673401
H       -3.56444656      -3.81125689      -6.21828142
H       -4.53913375      -1.78445973      -7.30635491
H       -3.98753737       0.47985021      -6.45725400
H       -2.43990300       0.75549082      -4.51337305
H       -0.20223239      -1.66291456      -3.35491213
C       -3.68742751      -4.15906810      -2.57305051
C       -4.89050089      -4.24252483      -2.58229263
Br      -6.83576879      -4.37746732      -2.59723635
C       -1.82017528       1.82017528       1.82017528
C       -2.35069469       1.03474340       3.01051702
C       -3.56198583       1.84226027       3.46810929
C       -4.19773844       2.35388207       2.17370054
C       -4.23802513       3.81917706       1.84028392
C       -4.86490180       5.01103779       2.12548702
C       -4.44350458       6.14042653       1.41973929
C       -3.42486598       6.04610327       0.45267533
C       -2.81707316       4.81893751       0.17387660
C       -3.25290082       3.72661927       0.88616958
C       -3.07397348       2.24656377       1.07186696
H       -1.19884119       2.66363488       2.13941509
H       -1.59141116       0.88607782       3.78538307
H       -2.69199388       0.03981753       2.69332210
H       -4.25859154       1.21331670       4.03203221
H       -5.10321918       1.78982437       1.91348934
H       -5.64875343       5.07402745       2.87120400
H       -4.90697773       7.10441395       1.61855671
H       -3.11164791       6.93810450      -0.08481125
H       -2.03737136       4.73435704      -0.57394316
H       -3.37815671       1.61137614       0.23052623
C       -3.15704460       2.86422297       4.39827855
C       -2.81790633       3.72011672       5.17729530
Br      -2.26954841       5.10402454       6.43689951
C        1.82017528      -1.82017528       1.82017528
C        1.54520016      -3.29345490       1.55730005
C        2.07436126      -3.99065206       2.80734208
C        1.72773646      -3.04131304       3.95627155
C        2.79531090      -2.34705149       4.75512372
C        3.74145204      -2.52010980       5.73986477
C        4.49367026      -1.40211810       6.10788204
C        4.27510635      -0.15402004       5.49451819
C        3.29658315      -0.00544399       4.50786012
C        2.57423043      -1.12455924       4.16690001
C        1.46796964      -1.63599162       3.28844296
H        2.85745682      -1.55681003       1.58762431
H        1.99688530      -3.64295629       0.62303047
H        0.46423309      -3.47584500       1.48505542
H        1.59687625      -4.96698589       2.94007829
H        0.86820276      -3.40108053       4.53724960
H        3.90228520      -3.48466815       6.20703152
H        5.25727769      -1.49551041       6.87716029
H        4.87249069       0.70332461       5.79577507
H        3.11542798       0.95262116       4.03497841
H        0.46176148      -1.25493875       3.50335885
C        3.47568590      -4.28635265       2.65750756
C        4.64929530      -4.53400190       2.53202115
Br       6.54692243      -4.93442980       2.32912024
C       -0.00445707       0.01189536      -1.78238275
H       -0.66409135       0.67374010      -2.43557963
H        0.65740317      -0.63156657      -2.45157240
C       -0.90989263      -0.90692880      -0.91072765
C        0.90977584       0.90977584      -0.90977584
C       -0.00465871       1.77757030       0.00794375
H       -0.66225468       2.44313916      -0.64384735
H        0.64322798       2.43503045       0.67728295
C       -1.78241447       0.00034974      -0.00472694
H       -2.45427497      -0.65498947       0.64260836
H       -2.43311707       0.67328779      -0.65473579
C       -0.91132561       0.90220522       0.91563759
C       -0.01476271      -0.02253852       1.78660255
H       -0.67934791      -0.69751639       2.42135241
H        0.63392994       0.61504881       2.47327442
C        0.01484550      -1.77751727      -0.01636693
H        0.67870853      -2.42144646      -0.68295456
H       -0.62264859      -2.45592969       0.64226336
C        1.78714474       0.01002794       0.00389507
H        2.44202412       0.67113390       0.66197326
H        2.45385902      -0.65136977      -0.64189061
C        0.91606151      -0.90478549       0.90901405
