110
Properties=species:S:1:pos:R:3 pbc="F F F"
C        1.82017528       1.82017528      -1.82017528
C        2.86488783       0.98519019      -2.54587710
C        3.93447078       2.00094899      -2.93693562
Br       3.50175248       2.80698021      -4.65432379
C        3.99468230       2.97350714      -1.75713162
C        3.58490586       4.41281919      -1.89976106
C        3.97273335       5.63959990      -2.38909337
C        3.09986598       6.71212288      -2.19168155
C        1.88137495       6.53224658      -1.51002306
C        1.52137027       5.27744889      -1.01106811
C        2.40090751       4.24203882      -1.22274336
C        2.64024982       2.78023706      -0.97191734
H        1.15112783       2.32735059      -2.52341274
H        2.44342101       0.42944869      -3.39000236
H        3.31220552       0.25040486      -1.86252314
H        4.89929052       1.50841849      -3.09623143
H        4.87847555       2.79871958      -1.12933776
H        4.91310130       5.76882339      -2.91206018
H        3.36347901       7.69815827      -2.56831111
H        1.21626172       7.38082032      -1.36785911
H        0.58920916       5.13014263      -0.47843344
H        2.80516584       2.48744820       0.07255496
C       -1.82017528      -1.82017528      -1.82017528
C       -1.20608431      -3.20224641      -1.98762440
C       -1.88005896      -3.74984255      -3.24245388
Br      -3.54932912      -4.63549826      -2.77822909
C       -2.02002263      -2.53848155      -4.16681688
C       -3.36611390      -1.98633450      -4.54503771
C       -4.47304662      -2.19112521      -5.33725478
C       -5.49652316      -1.24335210      -5.26379514
C       -5.38210154      -0.12482615      -4.41671689
C       -4.23916908       0.06433336      -3.63505154
C       -3.25049002      -0.88657341      -3.72862625
C       -1.88383198      -1.27122310      -3.23734914
H       -2.79895769      -1.87138558      -1.33154790
H       -1.33613133      -3.82814404      -1.09859668
H       -0.12655041      -3.12304991      -2.17553319
H       -1.26850831      -4.53288983      -3.70254230
H       -1.27697766      -2.55440870      -4.97514653
H       -4.55211712      -3.05489743      -5.98697032
H       -6.39267611      -1.36969295      -5.86757933
H       -6.19115273       0.60064755      -4.37443598
H       -4.13812997       0.92583336      -2.98548862
H       -1.05629663      -0.61945230      -3.54431015
C       -1.82017528       1.82017528       1.82017528
C       -1.25516448       3.23008089       1.91070974
C       -1.90211415       3.80077730       3.16946395
Br      -3.62143016       4.60345546       2.73817084
C       -1.95901352       2.62238111       4.14392643
C       -3.26695726       2.03490332       4.59562554
C       -4.35024821       2.22863282       5.42254559
C       -5.33759472       1.24054762       5.42552806
C       -5.21136813       0.09462831       4.61764814
C       -4.09234757      -0.08171123       3.79925093
C       -3.13910672       0.90897596       3.81760700
C       -1.80831024       1.32552854       3.25856544
H       -2.81805117       1.81489642       1.36894358
H       -1.44343769       3.81503961       1.00439476
H       -0.16699483       3.19937713       2.05876155
H       -1.30490835       4.62400322       3.57502888
H       -1.18703892       2.69836200       4.92113197
H       -4.43861715       3.11373698       6.04163074
H       -6.21447750       1.35651035       6.05896055
H       -5.99219587      -0.66212465       4.63486994
H       -3.98212678      -0.96370698       3.17936543
H       -0.94465982       0.71824258       3.55715667
C        1.82017528      -1.82017528       1.82017528
C        3.01833806      -1.03874736       2.33886969
C        4.01730017      -2.12341682       2.73163839
Br       3.70084671      -2.69889607       4.56331369
C        3.84671824      -3.21037824       1.66822458
C        3.31272782      -4.57299010       2.01176819
C        3.62748598      -5.77998145       2.59395918
C        2.63450092      -6.76231994       2.60684955
C        1.37162850      -6.51655847       2.03545762
C        1.08611736      -5.28595631       1.43781359
C        2.08355904      -4.33961906       1.44251158
C        2.43919868      -2.94656496       1.00664057
H        1.18652011      -2.17580328       2.63956777
H        2.75221450      -0.35715041       3.15350715
H        3.45793161      -0.43125697       1.53594493
H        5.03853815      -1.72859426       2.73680803
H        4.66766720      -3.19981709       0.93904860
H        4.60272343      -5.96047339       3.03078806
H        2.83806402      -7.72873689       3.06314748
H        0.61275992      -7.29522388       2.05695736
H        0.11972982      -5.08948074       0.98857467
H        2.51465530      -2.78072886      -0.07532509
C       -0.00445707       0.01189536      -1.78238275
H       -0.66409135       0.67374010      -2.43557963
H        0.65740317      -0.63156657      -2.45157240
C       -0.90989263      -0.90692880      -0.91072765
C        0.90977584       0.90977584      -0.90977584
C       -0.00465871       1.77757030       0.00794375
H       -0.66225468       2.44313916      -0.64384735
H        0.64322798       2.43503045       0.67728295
C       -1.78241447       0.00034974      -0.00472694
H       -2.45427497      -0.65498947       0.64260836
H       -2.43311707       0.67328779      -0.65473579
C       -0.91132561       0.90220522       0.91563759
C       -0.01476271      -0.02253852       1.78660255
H       -0.67934791      -0.69751639       2.42135241
H        0.63392994       0.61504881       2.47327442
C        0.01484550      -1.77751727      -0.01636693
H        0.67870853      -2.42144646      -0.68295456
H       -0.62264859      -2.45592969       0.64226336
C        1.78714474       0.01002794       0.00389507
H        2.44202412       0.67113390       0.66197326
H        2.45385902      -0.65136977      -0.64189061
C        0.91606151      -0.90478549       0.90901405
