194
Properties=species:S:1:pos:R:3 pbc="F F F"
C        1.81504648       1.81504648      -1.81504648
H        2.74915378       1.25776068      -1.95276164
C        1.17702082       2.09433973      -3.16751588
C        1.99211232       3.29002708      -3.66300367
H        2.99747964       2.88775503      -3.87767263
C        2.21334750       4.18425282      -2.42998574
H        3.16019500       4.73699740      -2.48142805
C        2.11427492       3.18204096      -1.20695987
H        2.99402225       3.17561938      -0.55160717
C        0.97447169       4.04216668      -0.73185233
C        0.07310008       4.21823407       0.29421389
C       -0.73754421       5.35322195       0.24939159
C       -0.60517019       6.28218309      -0.79718258
C        0.32553129       6.07697858      -1.82014293
C        1.08418276       4.92967557      -1.77450134
C        1.56810462       3.92870592      -4.98412153
H        2.11808758       3.34701321      -5.74427168
C        1.97132472       5.38492704      -5.22152157
C        1.29654224       5.68741620      -6.55093683
H        1.89394971       5.27598201      -7.37304749
C       -0.05855919       4.98840588      -6.49727491
H       -0.41053271       4.66085841      -7.48334109
C        0.10064015       3.82286843      -5.43596192
H       -0.14421299       2.82596405      -5.82436906
C       -1.01389211       4.49704104      -4.68524458
C       -1.87909615       4.37740219      -3.62179556
C       -2.84673417       5.37267916      -3.45539406
C       -2.93829620       6.44286634      -4.36206127
C       -2.07506039       6.51894423      -5.45584087
C       -1.12933015       5.52661910      -5.58714553
Br       1.17504183       7.58416679      -6.89086051
H        0.11852700       2.34072302      -3.05903960
H        1.25137072       1.23510091      -3.84236385
H        0.00866416       3.51526745       1.11698580
H       -1.46296771       5.53236115       1.03892941
H       -1.23213035       7.17031426      -0.81262323
H        0.43286135       6.80211645      -2.61842207
H        3.05802551       5.50969768      -5.27432275
H        1.59945670       6.04342382      -4.43348111
H       -1.81998175       3.54733138      -2.92737081
H       -3.53492621       5.31665947      -2.61561154
H       -3.70050278       7.20468339      -4.21928736
H       -2.16173065       7.31736289      -6.18396370
C       -1.81504648      -1.81504648      -1.81504648
H       -2.68479068      -1.20009376      -2.07479166
C       -1.09918325      -2.25727640      -3.08241678
C       -1.97161187      -3.42326955      -3.55026165
H       -2.91928468      -2.96325379      -3.88036884
C       -2.36380646      -4.18946621      -2.27431339
H       -3.34724361      -4.66879120      -2.36258564
C       -2.27596925      -3.09782780      -1.12947870
H       -3.20056554      -2.96694286      -0.55374040
C       -1.25402992      -4.00103119      -0.49342960
C       -0.45393446      -4.15929732       0.61611152
C        0.25838573      -5.35393048       0.72925860
C        0.12988462      -6.35521449      -0.24886560
C       -0.69711254      -6.16544734      -1.36009291
C       -1.35680587      -4.96258029      -1.46897351
C       -1.50131437      -4.20307039      -4.77654731
H       -1.93872606      -3.64680200      -5.62384442
C       -2.00695289      -5.63816054      -4.93265990
C       -1.25835306      -6.10434912      -6.17219309
H       -1.75248547      -5.71875202      -7.07174173
C        0.14285653      -5.51149432      -6.05848380
H        0.59745647      -5.29743795      -7.03368531
C        0.00067705      -4.25114956      -5.10899798
H        0.35896266      -3.31306727      -5.55201551
C        0.99174318      -4.94425608      -4.21588060
C        1.77810550      -4.80278922      -3.09541788
C        2.64170791      -5.85298947      -2.77005749
C        2.71270084      -7.00019361      -3.57913864
C        1.93436706      -7.10112132      -4.73297045
C        1.08952879      -6.05258628      -5.02137699
Br      -1.27217878      -8.02678868      -6.35110168
H       -0.07718853      -2.57562376      -2.86547732
H       -1.04724433      -1.45529154      -3.82629962
H       -0.39460060      -3.39618948       1.38384428
H        0.90195777      -5.52157096       1.58914916
H        0.67841895      -7.28777382      -0.14145227
H       -0.80285332      -6.94514118      -2.10540537
H       -3.09284862      -5.68154727      -5.06765005
H       -1.75517054      -6.25441261      -4.06677849
H        1.73555525      -3.91466187      -2.47561382
H        3.26434064      -5.77986341      -1.88182203
H        3.39392561      -7.80442810      -3.31296548
H        2.00961421      -7.96282690      -5.38638325
C       -1.81504648       1.81504648       1.81504648
H       -1.20669180       2.69394410       2.05904021
C       -3.08672191       2.24986802       1.10228651
C       -3.96063242       2.71709214       2.26741851
H       -3.48516582       3.64333010       2.63441138
C       -3.71651551       1.70768479       3.40338577
H       -3.81714022       2.16575332       4.39572691
C       -2.27246399       1.13094700       3.09986477
H       -1.55569554       1.24275064       3.92280262
C       -2.94284326      -0.21398782       3.01963526
C       -2.70752240      -1.56010415       2.84970202
C       -3.79163505      -2.42574878       3.00039988
C       -5.06090369      -1.92547420       3.33876598
C       -5.26430746      -0.55303340       3.51137874
C       -4.18844038       0.28284623       3.31707306
C       -5.38983569       3.14770673       1.94338966
H       -5.29095427       4.21964861       1.69876960
C       -6.41585291       3.08584084       3.07607957
C       -7.70105102       3.47344798       2.36039628
H       -7.74393936       4.56201568       2.23702418
C       -7.63355584       2.80106664       0.99249911
H       -8.15533022       3.36728026       0.21105631
C       -6.09407480       2.55600204       0.70939366
H       -5.73410313       2.99972583      -0.22770884
C       -6.45082209       1.09830676       0.61926466
C       -5.97481627      -0.15215944       0.29744477
C       -6.87917273      -1.21809006       0.32025638
C       -8.23111326      -1.00505342       0.64057157
C       -8.69703971       0.27964092       0.92304408
C       -7.77953971       1.30626332       0.89863145
Br      -9.27224865       2.99999790       3.37782258
H       -3.53994355       1.41498356       0.56336250
H       -2.89929667       3.05050395       0.37903487
H       -1.71542331      -1.93711619       2.62863869
H       -3.65137529      -3.49646895       2.87555770
H       -5.89420045      -2.61171490       3.46832158
H       -6.24180199      -0.17288492       3.78448279
H       -6.17454189       3.77677708       3.89072698
H       -6.49079349       2.08310031       3.50246783
H       -4.93581341      -0.31891786       0.03782489
H       -6.53155413      -2.22152463       0.08731530
H       -8.92063927      -1.84541258       0.64824128
H       -9.74487595       0.46261170       1.13210828
C        1.81504648      -1.81504648       1.81504648
H        1.38989310      -2.82332687       1.74645613
C        3.26171556      -1.83233214       1.34482873
C        3.98864552      -2.38428471       2.57221283
H        3.67860992      -3.44142935       2.64286804
C        3.31418620      -1.72493195       3.78846792
H        3.33191542      -2.37144633       4.67525870
C        1.85806424      -1.37105504       3.27415647
H        1.04658648      -1.79888071       3.87578161
C        2.20547079       0.05656525       3.59958516
C        1.70360056       1.33849999       3.63201969
C        2.51353931       2.33161197       4.18435881
C        3.77866474       2.01053071       4.70606145
C        4.25556701       0.69692574       4.66401152
C        3.45474819      -0.25622609       4.07738539
C        5.51306736      -2.45749257       2.51037215
H        5.70933485      -3.44418675       2.05585088
C        6.27015502      -2.46825116       3.83936714
C        7.71947189      -2.43724523       3.37817816
H        8.03263279      -3.44140719       3.06893923
C        7.75370799      -1.49375475       2.17965885
H        8.52648446      -1.75945269       1.44772965
C        6.27859224      -1.47917101       1.60170725
H        6.20938310      -1.75508349       0.54165353
C        6.30225663       0.00052676       1.86666364
C        5.62034166       1.18136686       1.68112681
C        6.23623609       2.36197287       2.10707583
C        7.51790527       2.33481859       2.68354474
C        8.20529950       1.12841779       2.82284301
C        7.56813464      -0.01668316       2.39961668
Br       8.92460328      -1.92750148       4.79796438
H        3.60319042      -0.82721838       1.08788081
H        3.39965558      -2.46645257       0.46272734
H        0.70992874       1.56612450       3.26314156
H        2.15727619       3.35758581       4.23077365
H        4.39390299       2.79068047       5.14758461
H        5.22638307       0.45168319       5.07869998
H        6.04727694      -3.35979789       4.43497111
H        6.03327115      -1.59375746       4.44933303
H        4.63713443       1.20821623       1.22580224
H        5.71718874       3.31008743       1.99024350
H        7.98295816       3.26361497       3.00412478
H        9.21000502       1.09928805       3.22887896
C       -0.00445707       0.01189536      -1.78238275
H       -0.66409135       0.67374010      -2.43557963
H        0.65740317      -0.63156657      -2.45157240
C       -0.90989263      -0.90692880      -0.91072765
C        0.90977584       0.90977584      -0.90977584
C       -0.00465871       1.77757030       0.00794375
H       -0.66225468       2.44313916      -0.64384735
H        0.64322798       2.43503045       0.67728295
C       -1.78241447       0.00034974      -0.00472694
H       -2.45427497      -0.65498947       0.64260836
H       -2.43311707       0.67328779      -0.65473579
C       -0.91132561       0.90220522       0.91563759
C       -0.01476271      -0.02253852       1.78660255
H       -0.67934791      -0.69751639       2.42135241
H        0.63392994       0.61504881       2.47327442
C        0.01484550      -1.77751727      -0.01636693
H        0.67870853      -2.42144646      -0.68295456
H       -0.62264859      -2.45592969       0.64226336
C        1.78714474       0.01002794       0.00389507
H        2.44202412       0.67113390       0.66197326
H        2.45385902      -0.65136977      -0.64189061
C        0.91606151      -0.90478549       0.90901405
