133
Properties=species:S:1:pos:R:3 pbc="F F F"
C        0.00000000       0.00000000       0.00000000
C        0.88210683       0.88210683      -0.88210683
C        1.94479582       0.31606517      -1.57928568
C        2.75012566       1.12345936      -2.38496872
C        2.49866118       2.50065797      -2.50124660
C        1.41782129       3.06815766      -1.78989133
C        0.61522188       2.24706670      -0.98157008
C        1.16945978       4.44221842      -1.90845655
C        1.97574640       5.24637855      -2.72000815
C        3.05346416       4.70502755      -3.43544904
C        3.29964945       3.32626538      -3.31075862
C        3.89748898       5.55368016      -4.29473733
C        4.14925261       5.20619991      -5.62976034
C        4.94522462       6.01268904      -6.44887157
C        5.51298406       7.19494307      -5.95563246
C        5.27309106       7.56492772      -4.61274939
C        4.47183106       6.73950591      -3.80378281
C        5.84037931       8.74987200      -4.11532529
C        6.63208058       9.56045273      -4.93122762
C        6.86336795       9.18959767      -6.25214702
C        6.31162606       8.01706173      -6.76664028
Br       7.93507017      10.28596513      -7.35888822
H        2.15565379      -0.74734132      -1.50444523
H        3.57805204       0.66798244      -2.92434113
H       -0.21886515       2.67458509      -0.43023502
H        0.34105028       4.90163443      -1.37331517
H        1.74339893       6.30685937      -2.80011608
H        4.13987579       2.88859808      -3.84811973
H        3.71200855       4.30311053      -6.05184274
H        5.11272948       5.70851823      -7.48005107
H        4.29911080       7.02016086      -2.76564516
H        5.66765288       9.05169720      -3.08422438
H        7.06018392      10.47371717      -4.52684504
H        6.50173564       7.74072741      -7.80116875
C       -0.88210683      -0.88210683      -0.88210683
C       -1.61590206      -1.91570793      -0.30853668
C       -2.42153874      -2.72107710      -1.11593789
C       -2.50120062      -2.49864904      -2.50071610
C       -1.75278834      -1.44725676      -3.07582517
C       -0.94488362      -0.64436227      -2.25461278
C       -1.83487756      -1.22780712      -4.45745006
C       -2.64647402      -2.03392734      -5.26173174
C       -3.39831353      -3.08270595      -4.71292127
C       -3.31015762      -3.30000991      -3.32650592
C       -4.25749050      -3.92649524      -5.56192072
C       -5.60536198      -4.14032012      -5.23953077
C       -6.42422613      -4.93601520      -6.04654390
C       -5.91778605      -5.54156442      -7.20420913
C       -4.56182677      -5.34029477      -7.54864663
C       -3.75340455      -4.53865435      -6.72306088
C       -4.05113288      -5.94552819      -8.70891552
C       -4.86660056      -6.73712010      -9.52004028
C       -6.20042999      -6.93025986      -9.17442279
C       -6.72826244      -6.34046695      -8.02659868
Br      -7.30660157      -8.00174268     -10.27157927
H       -1.56970891      -2.10380260       0.76075381
H       -2.98976432      -3.52609496      -0.65451633
H       -0.36518591       0.16718517      -2.68795422
H       -1.27078169      -0.42230188      -4.92291630
H       -2.69750575      -1.82416943      -6.32869921
H       -3.87625599      -4.11777388      -2.88256373
H       -6.03742382      -3.67319790      -4.35634010
H       -7.46551325      -5.07341126      -5.76237427
H       -2.70556949      -4.39566318      -6.98368415
H       -3.00985731      -5.80285781      -8.99085933
H       -4.45179276      -7.19494318     -10.41401019
H       -7.77279138      -6.50101811      -7.76982232
C       -0.88210683       0.88210683       0.88210683
C       -0.29648403       1.70256369       1.84109894
C       -1.10389420       2.50809114       2.64656840
C       -2.50085371       2.50108262       2.49862942
C       -3.08813605       1.66496770       1.52276652
C       -2.26669646       0.85805552       0.71910668
C       -4.48192968       1.66071536       1.37748970
C       -5.28652563       2.47239341       2.18321405
C       -4.72579523       3.31037461       3.15777091
C       -3.32699806       3.30871321       3.30096218
C       -5.57564645       4.16922714       4.00103287
C       -5.31880774       5.54228876       4.12411637
C       -6.12709291       6.36047908       4.91921324
C       -7.22040243       5.82793384       5.61522333
C       -7.49809627       4.44634020       5.50633169
C       -6.67220044       3.63921615       4.70370319
C       -8.59377864       3.90939725       6.20240069
C       -9.40619049       4.72375064       6.99381981
C       -9.12650642       6.08288583       7.09572039
C       -8.04337361       6.63712207       6.41483240
Br     -10.22554106       7.18758282       8.16679964
H        0.78222084       1.72417026       1.97080827
H       -0.63294438       3.14460712       3.39282411
H       -2.70935255       0.21123224      -0.03462983
H       -4.95717080       1.02807334       0.63075574
H       -6.36434321       2.45451348       2.03151770
H       -2.87267483       3.94289429       4.06102448
H       -4.48756511       5.99383850       3.58555820
H       -5.89515327       7.42153322       4.98461228
H       -6.88059416       2.57257480       4.63174785
H       -8.82378126       2.84817605       6.13161715
H      -10.24964874       4.28830346       7.52279392
H       -7.83769182       7.70125196       6.50468803
C        0.88210683      -0.88210683       0.88210683
C        1.01555876      -0.58895830       2.23562960
C        1.82210302      -1.39593558       3.04051514
C        2.49908893      -2.50170247       2.49977435
C        2.35881537      -2.79274867       1.12430623
C        1.54618933      -1.97374161       0.32392773
C        3.03514898      -3.89680075       0.58818501
C        3.83831090      -4.70502222       1.39879998
C        3.99194947      -4.43563267       2.76635861
C        3.31312484      -3.32511992       3.29842868
C        4.83387933      -5.29268828       3.61933885
C        4.33839258      -5.83133484       4.81548544
C        5.13344792      -6.64946912       5.62386819
C        6.45088773      -6.95519622       5.25747566
C        6.97167437      -6.42300174       4.05609206
C        6.15738979      -5.60015431       3.25757569
C        8.29191911      -6.72803534       3.68562214
C        9.08774589      -7.54833440       4.48768065
C        8.56779129      -8.06862334       5.66869801
C        7.26056124      -7.77796079       6.05680604
Br       9.64374442      -9.17989492       6.75628418
H        0.49932465       0.26077506       2.67420811
H        1.91799120      -1.15514381       4.09724059
H        1.43200718      -2.18963976      -0.73569198
H        2.94006177      -4.14319206      -0.46725395
H        4.33612655      -5.56329598       0.95095186
H        3.42963198      -3.09118275       4.35577887
H        3.31451471      -5.62821668       5.12423043
H        4.70910960      -7.04989622       6.54229296
H        6.56528479      -5.18080300       2.33882903
H        8.71112719      -6.32778416       2.76466311
H       10.10601143      -7.77291273       4.18182196
H        6.86861327      -8.19216582       6.98285272
