149
Properties=species:S:1:pos:R:3 pbc="F F F"
C        0.00000000       0.00000000       0.00000000
C        0.88218128       0.88218128      -0.88218128
C        1.82637794       0.29458547      -1.71835046
C        2.62931358       1.10048559      -2.52760606
C        2.49275305       2.49792198      -2.50806561
C        1.53298736       3.09029086      -1.65291392
C        0.73217389       2.26830785      -0.84361203
C        1.39871642       4.48792485      -1.63507527
C        2.19477616       5.29179152      -2.45483990
C        3.13543223       4.70753374      -3.30147451
C        3.28713592       3.31890252      -3.32451092
C        3.93646056       5.52395073      -4.16079057
C        4.60240731       6.19573185      -4.90005667
C        5.44510044       7.04488454      -5.85488337
C        6.10281655       7.71795364      -6.60005900
C        6.88666156       8.53695177      -7.47289682
C        7.81950048       7.95527922      -8.33007737
C        8.59526847       8.76037410      -9.16684637
C        8.44996063      10.15700365      -9.15409440
C        7.49774453      10.74590792      -8.28840667
C        6.72311047       9.92354883      -7.45486864
C        7.34931420      12.14225779      -8.27408149
C        8.13415808      12.95057592      -9.09822106
C        9.07164696      12.36632426      -9.94432020
C        9.23241726      10.98193866      -9.97934684
Br      10.14105285      13.46174768     -11.05422070
H        1.94587588      -0.78516806      -1.75073586
H        3.36254980       0.62787193      -3.17795862
H       -0.01082580       2.71135799      -0.18485140
H        0.66786381       4.96325532      -0.98420412
H        2.07044072       6.37180956      -2.42905190
H        4.02554898       2.87405478      -3.98884150
H        7.95156396       6.87549892      -8.35237221
H        9.31983009       8.28757197      -9.82644506
H        5.99057667      10.36587623      -6.78337392
H        6.62111147      12.61212627      -7.61608959
H        8.00677136      14.02942944      -9.06917762
H        9.96906585      10.54097981     -10.64629799
C       -0.88218128      -0.88218128      -0.88218128
C       -2.26369172      -0.71862841      -0.85699373
C       -3.06932669      -1.52171322      -1.66636532
C       -2.49995050      -2.49161187      -2.50717827
C       -1.09425057      -2.65588903      -2.52605255
C       -0.29542192      -1.84204973      -1.70662212
C       -0.52750577      -3.62670811      -3.36750266
C       -1.33477127      -4.42085579      -4.18578052
C       -2.71862243      -4.25432339      -4.17149467
C       -3.29845265      -3.29864030      -3.33345642
C       -3.54844738      -5.04780886      -5.02494561
C       -4.25503101      -5.69417696      -5.74898786
C       -5.16067769      -6.50508856      -6.67910209
C       -5.86412808      -7.14571324      -7.41098787
C       -6.68813406      -7.92674101      -8.28163508
C       -8.07142723      -7.75415972      -8.27927012
C       -8.87301655      -8.53189981      -9.11757258
C       -8.30131535      -9.49390523      -9.96583810
C       -6.89626655      -9.66341660      -9.97237597
C       -6.10303325      -8.87239740      -9.12609728
C       -6.32141386     -10.62391511     -10.82032451
C       -7.12139560     -11.41344874     -11.64811071
C       -8.50257074     -11.24525803     -11.63446265
C       -9.09473753     -10.29408986     -10.80487536
Br      -9.58697997     -12.32086011     -12.74918115
H       -2.72409377       0.02831070      -0.21566061
H       -4.14807448      -1.38220836      -1.63809752
H        0.78583996      -1.95657407      -1.71464949
H        0.55065108      -3.76979252      -3.39618181
H       -0.87450112      -5.16303200      -4.83376906
H       -4.38011057      -3.17829526      -3.33003942
H       -8.53535959      -7.01778506      -7.62629044
H       -9.95071773      -8.38420311      -9.09892628
H       -5.02242827      -8.99661149      -9.12078706
H       -5.24288558     -10.76678563     -10.83965612
H       -6.65733985     -12.15404821     -12.29399036
H      -10.17532995     -10.17476753     -10.80624618
C       -0.88218128       0.88218128       0.88218128
C       -1.67649222       1.86423914       0.29858250
C       -2.48582437       2.66726882       1.10431204
C       -2.50819595       2.49303453       2.49751016
C       -1.69546191       1.49477211       3.08595813
C       -0.88558663       0.69429037       2.26421677
C       -1.71947843       1.32286708       4.47937103
C       -2.53943949       2.11936777       5.28260032
C       -3.34439396       3.09808520       4.70196132
C       -3.32535333       3.28731266       3.31788337
C       -4.20408878       3.90029924       5.51681384
C       -4.94346108       4.56809785       6.18663691
C       -5.89838276       5.41368881       7.03279677
C       -6.64391487       6.07339025       7.70352408
C       -7.51765013       6.85873494       8.52012509
C       -8.33342193       7.82986076       7.94157439
C       -9.17094929       8.60651732       8.74502232
C       -9.20031540       8.42374947      10.13699381
C       -8.37675697       7.43283501      10.72246714
C       -7.54195534       6.65786005       9.90171254
C       -8.40462657       7.24691132      12.11411559
C       -9.22938012       8.03220550      12.92136944
C      -10.03388408       9.00774323      12.34066411
C      -10.02669956       9.20624581      10.96075739
Br     -11.14446732      10.07756446      13.43498945
H       -1.67610836       2.01330944      -0.77797412
H       -3.10322393       3.43036900       0.63478742
H       -0.25923594      -0.07800855       2.70415620
H       -1.10157153       0.56206217       4.95168956
H       -2.54655209       1.96563708       6.35911301
H       -3.95734292       4.05522869       2.87587365
H       -8.32261929       7.99121188       6.86560392
H       -9.79781423       9.36120741       8.27482548
H       -6.90258117       5.89569001      10.34155564
H       -7.77938396       6.48870496      12.58123841
H       -9.23328908       7.87536766      13.99672167
H      -10.66146130       9.97236677      10.52251558
C        0.88218128      -0.88218128       0.88218128
C        0.29385034      -1.72994488       1.81551864
C        1.09979846      -2.53917770       2.61842907
C        2.49803840      -2.50802563       2.49267661
C        3.09111523      -1.64112581       1.54395110
C        2.26906873      -0.83198456       0.74304048
C        4.48954841      -1.61169140       1.42047673
C        5.29359533      -2.43139561       2.21641665
C        4.70870879      -3.28957179       3.14615990
C        3.31918559      -3.32426845       3.28709533
C        5.52556920      -4.14876808       3.94686458
C        6.19790888      -4.88798581       4.61230114
C        7.04791597      -5.84275718       5.45419520
C        7.72165087      -6.58781162       6.11136670
C        8.54132535      -7.46037837       6.89480644
C        7.95916342      -8.32902074       7.81667292
C        8.76472160      -9.16556436       8.59220298
C       10.16227267      -9.14113980       8.45764621
C       10.75174765      -8.26378832       7.51652315
C        9.92894230      -7.43061473       6.74197091
C       12.14903069      -8.23776895       7.37885383
C       12.95764700      -9.06172867       8.16357938
C       12.37278646      -9.91934524       9.09015973
C       10.98753145      -9.96606842       9.24010289
Br      13.46851706     -11.02904658      10.15945759
H       -0.78649807      -1.77140779       1.92653395
H        0.62662255      -3.19865744       3.34310037
H        2.71269261      -0.16424647       0.00844452
H        4.96541900      -0.95169072       0.69821354
H        6.37429512      -2.39649084       2.10051622
H        2.87384138      -3.99755481       4.01704908
H        6.87861625      -8.36048966       7.94032918
H        8.29149332      -9.83422500       9.30812880
H       10.37166723      -6.75022852       6.01793107
H       12.61936528      -7.57070945       6.65925260
H       14.03718061      -9.02355421       8.04464360
H       10.54610923     -10.64193234       9.96830208
