125
Properties=species:S:1:pos:R:3 pbc="F F F"
C        0.00000000       0.00000000       0.00000000
C        0.91512585       0.91512585      -0.91512585
N        0.81142739       2.30940634      -0.53526359
C        1.04566909       3.26220025      -1.63365567
C        2.50482956       3.42016403      -2.05103396
O        3.15835058       4.43630874      -1.82893241
N        3.08205387       2.35726128      -2.68304292
C        1.43624278       2.68325270       0.74710926
C        2.94340791       2.35568711       0.95786715
N        3.48513582       2.71403072       2.29571094
C        3.42639378       4.18918302       2.47391542
C        3.93130120       4.69284542       3.83176348
O        4.09340002       4.01732472       4.84024632
N        4.19985729       6.03718639       3.86092325
C        4.87613610       2.25266992       2.42483024
Br       4.99742932       0.30049272       2.51184447
H        0.50767213       0.74503986      -1.91761237
H        1.92680761       0.50465188      -0.88549580
H        0.67661105       4.25245985      -1.33839546
H        0.45824584       2.98604498      -2.51780138
H        2.55808859       1.56522114      -3.02556751
H        4.03749052       2.47023428      -2.99774927
H        0.87464929       2.20391062       1.55878111
H        1.26064872       3.75491837       0.88785454
H        3.55220829       2.84127461       0.19096474
H        3.05141588       1.27876033       0.80840923
H        2.38749202       4.52997552       2.43504594
H        3.98920908       4.69520420       1.67931114
H        3.90093002       6.66724754       3.13085663
H        4.46555331       6.42987802       4.75528109
H        5.34287435       2.55590401       3.36416408
H        5.51437297       2.57804859       1.59646815
C       -0.91512585      -0.91512585      -0.91512585
N       -2.26620386      -0.39771170      -0.99218176
C       -3.30132950      -1.42037868      -1.21981683
C       -3.36429019      -1.96977032      -2.64196704
O       -4.28634612      -1.72227828      -3.41496733
N       -2.32308810      -2.75480457      -3.04446540
C       -2.44529201       0.84251679      -1.76961099
C       -1.95802369       0.86469720      -3.24790138
N       -2.12380398       2.16699442      -3.94664604
C       -3.57160629       2.48764554      -4.05770063
C       -3.88266346       3.82716469      -4.73688438
O       -3.09428876       4.74577845      -4.92196810
N       -5.18570120       3.95413667      -5.14455590
C       -1.52336661       2.10781950      -5.28842867
Br       0.43007801       1.99866332      -5.21481890
H       -0.88851334      -1.88160311      -0.40020791
H       -0.41088005      -1.02882964      -1.87724561
H       -4.28592995      -0.99712749      -0.98440892
H       -3.17429787      -2.26099349      -0.52680084
H       -1.62326796      -3.11395658      -2.41165271
H       -2.37804352      -3.15465314      -3.97277741
H       -1.93928650       1.65944459      -1.23993687
H       -3.50836662       1.10038055      -1.71972647
H       -2.46116433       0.08780445      -3.82915829
H       -0.89696824       0.60470211      -3.22950084
H       -4.01035585       2.58849081      -3.06055656
H       -4.10215079       1.68998999      -4.59294134
H       -5.91308219       3.32110945      -4.84534819
H       -5.45719632       4.84904282      -5.53199674
H       -1.68280503       3.01809756      -5.86990681
H       -1.87146394       1.25202417      -5.87651364
C       -0.91512585       0.91512585       0.91512585
N       -2.29089090       0.46101376       0.90419265
C       -3.28732429       1.52115374       1.13304698
C       -3.39382855       2.00641778       2.57578123
O       -4.36286970       1.76848122       3.29224082
N       -2.33815072       2.72037718       3.06383018
C       -2.56489399      -0.80375287       1.61124510
C       -2.15164798      -0.91813110       3.10771100
N       -2.41142493      -2.24182462       3.73385529
C       -3.87622482      -2.49649109       3.76192764
C       -4.28172504      -3.84935020       4.36000830
O       -3.54673112      -4.81281066       4.53655794
N       -5.60753142      -3.93157018       4.70015918
C       -1.87485439      -2.27420494       5.10332633
Br       0.08281649      -2.25688222       5.12577628
H       -0.81871460       1.90200209       0.44960767
H       -0.45353705       0.95943482       1.90398342
H       -4.27787783       1.15765872       0.83192980
H       -3.08789609       2.38582715       0.48836897
H       -1.59248279       3.07402836       2.48236610
H       -2.41958598       3.07894703       4.00694106
H       -2.07215547      -1.61888034       1.06650366
H       -3.63509740      -1.00702098       1.49963612
H       -2.64589318      -0.14547951       3.70210449
H       -1.08003949      -0.70947178       3.15119927
H       -4.27016583      -2.52953168       2.74178744
H       -4.39461127      -1.69965706       4.31014792
H       -6.28936259      -3.25072488       4.39868321
H       -5.93875342      -4.82921657       5.03061339
H       -2.10442224      -3.20163592       5.63182796
H       -2.21107994      -1.43068581       5.71555929
C        0.91512585      -0.91512585       0.91512585
N        0.70309585      -2.32025027       0.63275120
C        0.94951482      -3.21799675       1.77401345
C        2.42028856      -3.44402220       2.11171679
O        2.99553329      -4.51168481       1.91637363
N        3.10018992      -2.38421386       2.63795429
C        1.22033780      -2.81037280      -0.65832439
C        2.72785416      -2.59382783      -0.98045411
N        3.15970029      -3.06651411      -2.32275880
C        3.00054069      -4.54289694      -2.40177625
C        3.38563769      -5.15917398      -3.75242853
O        3.52303555      -4.55769058      -4.81024772
N        3.56999820      -6.51731086      -3.71118864
C        4.56484810      -2.70428492      -2.56515723
Br       4.79808299      -0.77279956      -2.78480498
H        0.58406526      -0.65887711       1.92738198
H        1.94576354      -0.57315758       0.79803417
H        0.50303106      -4.19848553       1.56594976
H        0.43798356      -2.85166442       2.67244422
H        2.64819737      -1.54083862       2.95984126
H        4.06531934      -2.53921180       2.90094293
H        0.63767706      -2.34582751      -1.46372578
H        0.97158557      -3.87505996      -0.71893299
H        3.35427850      -3.07033881      -0.22209914
H        2.91016307      -1.51902361      -0.90741970
H        1.94759645      -4.81314550      -2.27832035
H        3.58170717      -5.03512754      -1.61173257
H        3.28113584      -7.08153727      -2.92535219
H        3.75335663      -6.97963557      -4.59284196
H        4.95097686      -3.09315941      -3.50952199
H        5.23423462      -3.01939191      -1.75767312
