162
Properties=species:S:1:pos:R:3 pbc="F F F"
C        1.82385859       1.82385859      -1.82385859
N        3.02058471       2.37439418      -1.18022706
C        2.65329357       3.27932178      -0.06591009
C        3.83669163       4.15460113       0.34571693
O        4.17875191       4.32772998       1.50998954
N        4.47855136       4.78122207      -0.68526487
C        3.98545797       1.34691712      -0.74154009
C        4.44352628       0.54243696      -1.84974779
C        4.82106446      -0.12062036      -2.76314465
C        5.33870603      -0.94377154      -3.93504471
C        5.85227839      -1.63175380      -4.78076723
C        6.58176316      -2.51875808      -5.68427006
N        7.99853285      -2.63149627      -5.27865177
C        8.09103820      -3.24019544      -3.92135794
C        9.51778052      -3.15891271      -3.38388291
O       10.16107041      -4.13988746      -3.02837066
N       10.03251495      -1.89536595      -3.30737673
C        8.72981836      -3.48101005      -6.22736204
Br       9.03813821      -2.55031962      -7.91583431
H        1.17465797       2.63134092      -2.17998441
H        2.06767548       1.22263153      -2.70539081
H        2.30217237       2.73004321       0.81454197
H        1.86034595       3.97088107      -0.37869084
H        4.36169744       4.41718638      -1.62357345
H        5.32090925       5.29381560      -0.46237987
H        3.56445725       0.71150090       0.04612957
H        4.86489314       1.83190454      -0.30129462
H        6.49706151      -2.09711444      -6.69158572
H        6.09902907      -3.50425583      -5.70665843
H        7.75774802      -4.28448765      -3.92163689
H        7.48248495      -2.69895533      -3.18690735
H        9.59960300      -1.15277962      -3.84453545
H       11.00343451      -1.80107198      -3.04259408
H        8.21644657      -4.42148482      -6.45320774
H        9.74425066      -3.70627847      -5.88568140
C       -1.82385859      -1.82385859      -1.82385859
N       -1.14021224      -2.51139815      -2.92359556
C       -0.57466451      -1.53743286      -3.88642806
C       -0.22111806      -2.21385415      -5.21060362
O        0.84336298      -2.04531360      -5.79454173
N       -1.20464236      -3.00296153      -5.73743440
C       -0.11887823      -3.47880585      -2.47623111
C       -0.69229655      -4.50535387      -1.63806061
C       -1.16491741      -5.35143890      -0.94723244
C       -1.77277544      -6.45947207      -0.09773169
C       -2.14036350      -7.40854118       0.54761285
C       -2.42995788      -8.62345537       1.30613812
N       -1.65715315      -9.76790135       0.77936615
C       -0.19758722      -9.50936452       0.93475104
C        0.62405485     -10.56358706       0.19678149
O        1.47021235     -11.26249852       0.74273255
N        0.36126433     -10.66543940      -1.14035065
C       -2.00042802     -10.99129578       1.51555345
Br      -3.76963546     -11.64556267       1.01154523
H       -2.60822413      -1.16512068      -2.21263850
H       -2.32566350      -2.52275349      -1.14728083
H        0.32182474      -1.04306292      -3.49643544
H       -1.31513250      -0.76466351      -4.13012186
H       -1.93846499      -3.33905113      -5.12494116
H       -0.97489470      -3.53905165      -6.56315837
H        0.70830771      -2.97868668      -1.95944963
H        0.32468398      -3.97514921      -3.34762707
H       -3.50627430      -8.80885213       1.22359363
H       -2.21290637      -8.45775922       2.36923391
H        0.09979847      -9.48422562       1.98952989
H        0.09996812      -8.55474935       0.48434426
H       -0.50439281     -10.28330278      -1.50366322
H        0.81593364     -11.40987313      -1.65101712
H       -1.98951745     -10.86143438       2.60278234
H       -1.34812484     -11.82954631       1.25401757
C       -1.82385859       1.82385859       1.82385859
N       -1.15522398       2.96686732       2.45311465
C       -0.09824417       2.51313332       3.38714794
C        0.32397326       3.63936287       4.33018621
O        1.49287958       3.92229225       4.56707968
N       -0.70561617       4.29897764       4.94044449
C       -0.63152070       3.95393716       1.48845732
C       -1.68299634       4.49378003       0.65893466
C       -2.54963448       4.93871754      -0.02476328
C       -3.66135375       5.54161070      -0.87298525
C       -4.45361683       6.12040359      -1.57272859
C       -5.28570537       6.92563264      -2.46406288
N       -4.81620337       8.32668310      -2.49719813
C       -3.43076215       8.38496472      -3.04352617
C       -2.83776087       9.78199767      -2.87700782
O       -2.41266908      10.44978011      -3.81289557
N       -2.79528391      10.23918788      -1.58994607
C       -5.69498838       9.13411853      -3.35293656
Br      -7.40827028       9.47691984      -2.48153722
H       -2.24218180       1.15751138       2.58629013
H       -2.66704318       2.13131715       1.19733749
H        0.78994020       2.14707973       2.86053409
H       -0.47425963       1.70628265       4.02937559
H       -1.63109564       4.23894056       4.53242107
H       -0.47020556       5.10837801       5.49852115
H        0.16489818       3.52584256       0.86888420
H       -0.17637715       4.79194958       2.02976557
H       -6.31326277       6.86762793      -2.08935791
H       -5.28504529       6.48629112      -3.46990473
H       -3.39915296       8.09629397      -4.10054968
H       -2.74711180       7.72244203      -2.49911687
H       -3.38233927       9.79942314      -0.89040359
H       -2.49424170      11.19268869      -1.44197377
H       -5.90067863       8.67124748      -4.32375662
H       -5.30130403      10.14113031      -3.51878076
C        1.82385859      -1.82385859       1.82385859
N        3.26046279      -1.53441448       1.78032868
C        3.80663376      -1.76885261       0.42303907
C        5.33191494      -1.86202658       0.45163431
O        6.06175907      -1.27032884      -0.33559555
N        5.84228810      -2.69886440       1.40388579
C        3.61079514      -0.18833882       2.27478123
C        3.19126481      -0.00074495       3.64370126
C        2.84548020       0.15386669       4.77197524
C        2.44260488       0.34113832       6.22851265
C        2.21184411       0.59444671       7.38389443
C        2.02646397       1.04177025       8.76258142
N        3.20764465       1.79524300       9.23328670
C        3.38693268       3.02439953       8.40966755
C        4.72093831       3.69880315       8.72061557
O        4.81710400       4.86216122       9.09461084
N        5.82137867       2.91049638       8.53364344
C        3.02928260       2.18965554      10.63654329
Br       3.23097748       0.65861833      11.83129374
H        1.63058951      -2.85318144       1.50221236
H        1.41605514      -1.74325319       2.83638949
H        3.51796713      -0.98061663      -0.28091014
H        3.45257985      -2.72967349       0.02766453
H        5.25940777      -2.94907055       2.19397896
H        6.84703494      -2.71575170       1.51431807
H        3.19202593       0.59603594       1.63383861
H        4.69889579      -0.05619439       2.24300212
H        1.86479375       0.14810106       9.37484011
H        1.11618472       1.65066555       8.83591251
H        2.56974704       3.73860719       8.56375741
H        3.42978636       2.79702760       7.33767821
H        5.70603636       1.90443625       8.48975871
H        6.71790226       3.28512699       8.81218134
H        2.05437733       2.64527832      10.83907048
H        3.81440652       2.86991708      10.97916414
C       -0.00445707       0.01189536      -1.78238275
H       -0.66409135       0.67374010      -2.43557963
H        0.65740317      -0.63156657      -2.45157240
C       -0.90989263      -0.90692880      -0.91072765
C        0.90977584       0.90977584      -0.90977584
C       -0.00465871       1.77757030       0.00794375
H       -0.66225468       2.44313916      -0.64384735
H        0.64322798       2.43503045       0.67728295
C       -1.78241447       0.00034974      -0.00472694
H       -2.45427497      -0.65498947       0.64260836
H       -2.43311707       0.67328779      -0.65473579
C       -0.91132561       0.90220522       0.91563759
C       -0.01476271      -0.02253852       1.78660255
H       -0.67934791      -0.69751639       2.42135241
H        0.63392994       0.61504881       2.47327442
C        0.01484550      -1.77751727      -0.01636693
H        0.67870853      -2.42144646      -0.68295456
H       -0.62264859      -2.45592969       0.64226336
C        1.78714474       0.01002794       0.00389507
H        2.44202412       0.67113390       0.66197326
H        2.45385902      -0.65136977      -0.64189061
C        0.91606151      -0.90478549       0.90901405
