170
Properties=species:S:1:pos:R:3 pbc="F F F"
C        1.82385859       1.82385859      -1.82385859
N        3.02058471       2.37439418      -1.18022706
C        2.65329357       3.27932178      -0.06591009
C        3.83669163       4.15460113       0.34571693
O        4.17875191       4.32772998       1.50998954
N        4.47855136       4.78122207      -0.68526487
C        3.98545797       1.34691712      -0.74154009
C        4.44352628       0.54243696      -1.84974779
C        4.82106446      -0.12062036      -2.76314465
C        5.33870603      -0.94377154      -3.93504471
C        5.85227839      -1.63175380      -4.78076723
C        6.58176316      -2.51875808      -5.68427006
N        7.99853285      -2.63149627      -5.27865177
C        8.09103820      -3.24019544      -3.92135794
C        9.51778052      -3.15891271      -3.38388291
O       10.16107041      -4.13988746      -3.02837066
N       10.03251495      -1.89536595      -3.30737673
C        8.72981836      -3.48101005      -6.22736204
H        1.17465797       2.63134092      -2.17998441
H        2.06767548       1.22263153      -2.70539081
H        2.30217237       2.73004321       0.81454197
H        1.86034595       3.97088107      -0.37869084
H        4.36169744       4.41718638      -1.62357345
H        5.32090925       5.29381560      -0.46237987
H        3.56445725       0.71150090       0.04612957
H        4.86489314       1.83190454      -0.30129462
H        6.49706151      -2.09711444      -6.69158572
H        6.09902907      -3.50425583      -5.70665843
H        7.75774802      -4.28448765      -3.92163689
H        7.48248495      -2.69895533      -3.18690735
H        9.59960300      -1.15277962      -3.84453545
H       11.00343451      -1.80107198      -3.04259408
H        8.21644657      -4.42148482      -6.45320774
H        9.74425066      -3.70627847      -5.88568140
C        8.95721133      -2.79460449      -7.47264909
C        9.14765293      -2.21973984      -8.51557700
Br       9.45558090      -1.29023231     -10.20190322
C       -1.82385859      -1.82385859      -1.82385859
N       -2.19178044      -3.12538950      -1.25803601
C       -0.99135781      -3.96639072      -1.04077691
C       -1.37488956      -5.43201017      -0.83867609
O       -0.92205271      -6.13332165       0.05888200
N       -2.24114859      -5.93633797      -1.76755173
C       -3.00994469      -3.03102128      -0.03294922
C       -4.24336991      -2.31950484      -0.27283628
C       -5.25996603      -1.73306449      -0.47055823
C       -6.58061465      -1.02034690      -0.72901765
C       -7.67045338      -0.51360089      -0.81723755
C       -9.02132773       0.04126677      -0.76721417
N       -9.90534981      -0.80344712       0.06310859
C       -9.40713519      -0.83254372       1.46747821
C      -10.16156274      -1.87295804       2.29177005
O      -10.76728311      -1.60561958       3.32334908
N      -10.10045109      -3.14793397       1.80385934
C      -11.27095405      -0.26344288       0.05822657
H       -1.27015188      -1.95586497      -2.75996646
H       -2.70088280      -1.21928470      -2.07553031
H       -0.40583329      -3.63607163      -0.17576870
H       -0.34152489      -3.94328841      -1.92510458
H       -2.79942165      -5.29015711      -2.31287852
H       -2.58944627      -6.87298775      -1.61467071
H       -2.45154532      -2.56581942       0.78753615
H       -3.27275300      -4.03796840       0.31262910
H       -9.38862958       0.09478083      -1.79768405
H       -8.98622500       1.06944694      -0.38465361
H       -9.49212433       0.14885813       1.94836895
H       -8.35539775      -1.13822439       1.52318517
H       -9.83416551      -3.29402888       0.83683557
H      -10.65818454      -3.85287861       2.26610653
H      -11.31275362       0.81367103       0.25091310
H      -11.92181209      -0.77505293       0.77321144
C      -11.92386582      -0.51005843      -1.20133168
C      -12.47067943      -0.71659895      -2.25621171
Br     -13.35483079      -1.05055751      -3.96186351
C       -1.82385859       1.82385859       1.82385859
N       -3.00233517       1.17084773       2.40202305
C       -3.93419314       0.72422732       1.34010498
C       -5.31627920       0.41471582       1.91458080
O       -5.94990181      -0.59970858       1.64629912
N       -5.83269008       1.38122329       2.73112492
C       -2.67652304       0.06881412       3.32857803
C       -1.87168050       0.52794987       4.43608065
C       -1.20832098       0.90637825       5.34888952
C       -0.39524035       1.39435480       6.54038405
C        0.21025194       1.66493501       7.54660876
C        0.90741856       1.83521158       8.81948210
N        0.26618902       1.03100510       9.88087227
C        0.35166366      -0.41776139       9.54162574
C       -0.49724069      -1.25221574      10.49772578
O       -0.04625670      -2.17012910      11.17342602
N       -1.82044323      -0.91321043      10.53729293
C        0.94371351       1.25565869      11.16422517
H       -2.12435935       2.66808262       1.19354134
H       -1.16383809       2.24086436       2.59099537
H       -3.56735227      -0.16430385       0.81462520
H       -4.08561680       1.52236687       0.60193420
H       -5.20038474       2.05461606       3.14745647
H       -6.70217490       1.17228015       3.20264967
H       -2.17894309      -0.75821337       2.80909887
H       -3.60155475      -0.34799705       3.74453460
H        0.87663711       2.90187969       9.06629022
H        1.96423170       1.56255252       8.70311085
H        1.38674985      -0.77816989       9.55981700
H       -0.05515948      -0.63036016       8.54563765
H       -2.10800975      -0.00576243      10.18911149
H       -2.40213763      -1.37803502      11.22085399
H        2.03440744       1.18479017      11.09778676
H        0.59284091       0.57294212      11.94355238
C        0.61971371       2.55059675      11.70437289
C        0.34836387       3.63510737      12.15674660
Br      -0.09038586       5.38866932      12.88819663
C        1.82385859      -1.82385859       1.82385859
N        1.63101805      -1.67462961       3.26955829
C        1.98217912      -0.30469007       3.71165625
C        2.17180402      -0.24664376       5.22712804
O        1.67735911       0.62000346       5.93913671
N        2.98054510      -1.21824981       5.74624337
C        0.28287468      -2.05890519       3.73213532
C       -0.01414959      -3.43577196       3.41408866
C       -0.25895490      -4.57059628       3.15194737
C       -0.55989842      -6.03374581       2.85613181
C       -0.89722481      -7.18221488       2.71630176
C       -1.43841999      -8.53782081       2.64787431
N       -2.14116855      -8.88631908       3.90053782
C       -3.30392822      -7.97564379       4.10048513
C       -3.90835085      -8.16084955       5.49025203
O       -5.08360927      -8.45236989       5.68079299
N       -3.04069942      -7.95877683       6.52644830
C       -2.63069833     -10.26939080       3.83747788
H        2.85615884      -1.58171278       1.54811169
H        1.65578395      -2.85194025       1.48797361
H        1.22110748       0.42990318       3.42646932
H        2.94033187       0.00556405       3.27515005
H        3.14416454      -2.05676704       5.20152569
H        3.05558479      -1.26837372       6.75314621
H       -0.48658028      -1.39521423       3.32119464
H        0.22348389      -1.95269044       4.82191798
H       -0.59586416      -9.21522178       2.47217518
H       -2.10818390      -8.62675368       1.78286189
H       -4.07747513      -8.13256441       3.33980797
H       -3.00963741      -6.91996470       4.06010967
H       -2.04338894      -7.98706783       6.34767993
H       -3.37282935      -8.15761426       7.46017171
H       -3.15980787     -10.50083593       2.90714143
H       -3.27834244     -10.51907064       4.68292538
C       -1.54982196     -11.21101170       3.97406619
C       -0.64458800     -11.99961920       4.08845890
Br       0.81909874     -13.27473083       4.27342224
C       -0.00445707       0.01189536      -1.78238275
H       -0.66409135       0.67374010      -2.43557963
H        0.65740317      -0.63156657      -2.45157240
C       -0.90989263      -0.90692880      -0.91072765
C        0.90977584       0.90977584      -0.90977584
C       -0.00465871       1.77757030       0.00794375
H       -0.66225468       2.44313916      -0.64384735
H        0.64322798       2.43503045       0.67728295
C       -1.78241447       0.00034974      -0.00472694
H       -2.45427497      -0.65498947       0.64260836
H       -2.43311707       0.67328779      -0.65473579
C       -0.91132561       0.90220522       0.91563759
C       -0.01476271      -0.02253852       1.78660255
H       -0.67934791      -0.69751639       2.42135241
H        0.63392994       0.61504881       2.47327442
C        0.01484550      -1.77751727      -0.01636693
H        0.67870853      -2.42144646      -0.68295456
H       -0.62264859      -2.45592969       0.64226336
C        1.78714474       0.01002794       0.00389507
H        2.44202412       0.67113390       0.66197326
H        2.45385902      -0.65136977      -0.64189061
C        0.91606151      -0.90478549       0.90901405
