73
Properties=species:S:1:pos:R:3 pbc="F F F"
C        0.00000000       0.00000000       0.00000000
C        0.87906146       0.87906146      -0.87906146
C        0.59702296       2.22407180      -1.04119671
N        1.31268794       3.08529559      -1.79656653
C        2.37402655       2.52404664      -2.41448854
S        3.39193557       3.45262863      -3.40763462
C        4.36977295       2.11035268      -3.75180176
C        3.96081831       0.94351448      -3.13616622
C        4.60491572      -0.40304235      -3.23692181
C        2.77262244       1.19052986      -2.34055819
C        1.98220280       0.33856514      -1.53304989
H       -0.25802205       2.67703731      -0.54367597
H        5.48916030      -0.40872225      -3.87796449
H        3.89477230      -1.12877587      -3.64665801
H        4.91397430      -0.74617280      -2.24414712
H        2.23354233      -0.71223135      -1.42876996
C        5.51348149       2.23745223      -4.61746710
C        6.47133739       2.34389811      -5.34246182
Br       8.02010937       2.51601209      -6.51471697
C       -0.87906146      -0.87906146      -0.87906146
C       -0.56640261      -2.21131322      -1.08457565
N       -1.27932739      -3.07139642      -1.84382625
C       -2.37119001      -2.52288313      -2.41848859
S       -3.39077000      -3.45217544      -3.40925337
C       -4.41226299      -2.12810048      -3.69156391
C       -4.01757720      -0.96719961      -3.05572220
C       -4.69914037       0.36374986      -3.10340467
C       -2.80239235      -1.20294019      -2.29837796
C       -2.01312324      -0.35146559      -1.48922900
H        0.31324661      -2.65401023      -0.62192761
H       -5.60012601       0.36244462      -3.72072115
H       -4.01947670       1.11875755      -3.51193528
H       -4.99029580       0.67237876      -2.09403158
H       -2.28896452       0.68911634      -1.35023277
C       -5.57508982      -2.26318531      -4.53012569
C       -6.54895729      -2.37631885      -5.23242118
Br      -8.12361863      -2.55924623      -6.36797358
C       -0.87906146       0.87906146       0.87906146
C       -2.10699327       0.42650286       1.32879535
N       -2.95772594       1.12688797       2.10993615
C       -2.51298727       2.35791902       2.44165545
S       -3.44779458       3.38489497       3.41950927
C       -2.27231045       4.60565782       3.35395912
C       -1.16012385       4.27630100       2.60407417
C        0.04313992       5.12909889       2.35283621
C       -1.30428584       2.93830337       2.06112128
C       -0.45659561       2.15410936       1.24311286
H       -2.46607675      -0.56527748       1.06189196
H       -0.01507840       6.10640862       2.83691552
H        0.16452866       5.29915894       1.27802416
H        0.94237786       4.62820966       2.72611682
H        0.50057999       2.54180388       0.90885705
C       -2.47228610       5.85550741       4.04060732
C       -2.63976570       6.90225643       4.61567519
Br      -2.91056605       8.59476108       5.54551129
C        0.87906146      -0.87906146       0.87906146
C        2.17048219      -0.49596170       1.19584759
N        3.02689752      -1.20255872       1.96509383
C        2.51888485      -2.36429225       2.42938464
S        3.45023998      -3.38743097       3.41452786
C        2.18424903      -4.50912940       3.53854896
C        1.04246994      -4.14743215       2.85059693
C       -0.23847928      -4.91525480       2.76201966
C        1.24256563      -2.87075340       2.19039146
C        0.39249932      -2.08391386       1.37740465
H        2.58056590       0.43995138       0.82207672
H       -0.21496372      -5.85455725       3.31880901
H       -0.46013480      -5.15572020       1.71706904
H       -1.06353844      -4.31547453       3.16001253
H       -0.61547397      -2.41601094       1.14954397
C        2.34460138      -5.71554728       4.30825217
C        2.47889647      -6.72592225       4.95287861
Br       2.69604027      -8.35961312       5.99518503
