65
Properties=species:S:1:pos:R:3 pbc="F F F"
C        0.00000000       0.00000000       0.00000000
C        0.87906146       0.87906146      -0.87906146
C        0.59702296       2.22407180      -1.04119671
N        1.31268794       3.08529559      -1.79656653
C        2.37402655       2.52404664      -2.41448854
S        3.39193557       3.45262863      -3.40763462
C        4.36977295       2.11035268      -3.75180176
Br       5.86350622       2.27635025      -4.88239848
C        3.96081831       0.94351448      -3.13616622
C        4.60491572      -0.40304235      -3.23692181
C        2.77262244       1.19052986      -2.34055819
C        1.98220280       0.33856514      -1.53304989
H       -0.25802205       2.67703731      -0.54367597
H        5.48916030      -0.40872225      -3.87796449
H        3.89477230      -1.12877587      -3.64665801
H        4.91397430      -0.74617280      -2.24414712
H        2.23354233      -0.71223135      -1.42876996
C       -0.87906146      -0.87906146      -0.87906146
C       -0.53454120      -2.19506585      -1.13268443
N       -1.24461463      -3.05369642      -1.89623901
C       -2.36823738      -2.52139877      -2.42292558
S       -3.38955520      -3.45159358      -3.41105003
C       -4.45647254      -2.15069498      -3.62475987
Br      -6.00115495      -2.34039889      -4.68070111
C       -4.07663442      -0.99735615      -2.96650845
C       -4.79718209       0.31371768      -2.95533078
C       -2.83336848      -1.21874318      -2.25159884
C       -2.04529589      -0.36789114      -1.44063079
H        0.37070845      -2.62468894      -0.70871075
H       -5.71558671       0.30351865      -3.54633447
H       -4.15179506       1.09985685      -3.36071623
H       -5.06714799       0.58455642      -1.92935705
H       -2.34663166       0.65968390      -1.26313319
C       -0.87906146       0.87906146       0.87906146
C       -2.09541366       0.41689021       1.34998761
N       -2.94510996       1.11641570       2.13302440
C       -2.51191277       2.35703806       2.44361090
S       -3.44735060       3.38454587       3.42030234
C       -2.28837451       4.61901922       3.32453365
Br      -2.55899154       6.25922898       4.20403443
C       -1.18158471       4.29413765       2.56477666
C        0.00751039       5.15869537       2.28761020
C       -1.31554324       2.94765220       2.04051504
C       -0.46828705       2.16382493       1.22170584
H       -2.44519428      -0.58262276       1.10011971
H       -0.05703790       6.14126561       2.76009903
H        0.11324572       5.31660412       1.20929603
H        0.91764441       4.67389892       2.65569411
H        0.47962332       2.55921409       0.87049018
C        0.87906146      -0.87906146       0.87906146
C        2.15583227      -0.47679361       1.22966559
N        3.01093626      -1.18167630       2.00193750
C        2.51752281      -2.36253239       2.43250654
S        3.44967362      -3.38672922       3.41579598
C        2.20456619      -4.53576513       3.49159607
Br       2.42593287      -6.12705172       4.46927036
C        1.06961602      -4.18299313       2.78788987
C       -0.19340723      -4.97426603       2.65793639
C        1.25680703      -2.88939435       2.15750911
C        0.40728830      -2.10328424       1.34324528
H        2.55414887       0.47453580       0.88307816
H       -0.16188472      -5.92405652       3.19623073
H       -0.38921928      -5.19777661       1.60409710
H       -1.03828929      -4.39930234       3.05093558
H       -0.58896388      -2.45072386       1.08832097
