94
Properties=species:S:1:pos:R:3 pbc="F F F"
C        1.78896548       1.78896548      -1.78896548
C        1.50692699       3.13397583      -1.95110073
N        2.22259197       3.99519961      -2.70647055
C        3.28393057       3.43395067      -3.32439256
S        4.30183959       4.36253265      -4.31753864
C        5.27967697       3.02025670      -4.66170578
C        4.87072234       1.85341851      -4.04607025
C        5.51481974       0.50686168      -4.14682584
C        3.68252646       2.10043388      -3.25046222
C        2.89210682       1.24846916      -2.44295392
H        0.65188198       3.58694134      -1.45357999
H        6.39906432       0.50118177      -4.78786851
H        4.80467632      -0.21887185      -4.55656204
H        5.82387833       0.16373122      -3.15405114
H        3.14344635       0.19767268      -2.33867399
C        6.42338551       3.14735626      -5.52737113
C        7.38124141       3.25380214      -6.25236585
Br       8.93001339       3.42591612      -7.42462100
C       -1.78896548      -1.78896548      -1.78896548
C       -1.44631384      -3.10601579      -2.03967392
N       -2.15655450      -3.96473988      -2.80296775
C       -3.27831461      -3.43139842      -3.33256077
S       -4.29953053      -4.36153519      -4.32084517
C       -5.36378383      -3.05914466      -4.53871097
C       -4.98307491      -1.90531899      -3.88181719
C       -5.70133619      -0.59296567      -3.87420539
C       -3.74145582      -2.12762991      -3.16433683
C       -2.95331308      -1.27673784      -2.35347897
H       -0.54256558      -3.53648044      -1.61335728
H       -6.61871924      -0.60259220      -4.46680316
H       -5.05385870       0.19132669      -4.27983450
H       -5.97262500      -0.31985142      -2.84918427
H       -3.25315364      -0.24832551      -2.17831386
C       -6.54533606      -3.20374112      -5.34903571
C       -7.53488606      -3.32484066      -6.02768268
Br      -9.13490471      -3.52064836      -7.12499743
C       -1.78896548       1.78896548       1.78896548
C       -3.00599912       1.32733982       2.25866461
N       -3.85575641       2.02691410       3.04159162
C       -3.42188002       3.26699207       3.35340171
S       -4.35728074       4.29446969       4.33016046
C       -3.19733318       5.52816486       4.23614142
C       -2.09022580       5.20302928       3.47695601
C       -0.90029690       6.06691954       3.20129081
C       -2.22478479       3.85702561       2.95161217
C       -1.37750305       3.07317751       2.13284933
H       -3.35632720       0.32826576       2.00781035
H       -0.96447268       7.04919120       3.67445072
H       -0.79365772       6.22553884       2.12316995
H        0.00921322       5.58118885       3.56968507
H       -0.42904744       3.46812993       1.78261564
C       -3.40411149       6.78368499       4.91031641
C       -3.57728832       7.83518311       5.47493797
Br      -3.85730060       9.53536662       6.38788328
C        1.78896548      -1.78896548       1.78896548
C        3.06665084      -1.38782687       2.13752583
N        3.92183670      -2.09281056       2.90961488
C        3.42751184      -3.27254007       3.34222190
S        4.35961295      -4.29667455       4.32562339
C        3.11320182      -5.44409994       4.40433771
C        1.97782535      -5.09080214       3.70158361
C        0.71368303      -5.88069353       3.57413070
C        2.16582200      -3.79820019       3.06940038
C        1.31626907      -3.01204710       2.25521373
H        3.46570206      -0.43740569       1.78929556
H        0.74470568      -6.82986614       4.11354279
H        0.51631573      -6.10524734       2.52080344
H       -0.13001960      -5.30422346       3.96745683
H        0.31928516      -3.35858284       2.00192501
C        3.28212519      -6.66179618       5.15419152
C        3.42359851      -7.68161679       5.78219409
Br       3.65234891      -9.33058046       6.79762113
C       -0.00445707       0.01189536      -1.78238275
H       -0.66409135       0.67374010      -2.43557963
H        0.65740317      -0.63156657      -2.45157240
C       -0.90989263      -0.90692880      -0.91072765
C        0.90977584       0.90977584      -0.90977584
C       -0.00465871       1.77757030       0.00794375
H       -0.66225468       2.44313916      -0.64384735
H        0.64322798       2.43503045       0.67728295
C       -1.78241447       0.00034974      -0.00472694
H       -2.45427497      -0.65498947       0.64260836
H       -2.43311707       0.67328779      -0.65473579
C       -0.91132561       0.90220522       0.91563759
C       -0.01476271      -0.02253852       1.78660255
H       -0.67934791      -0.69751639       2.42135241
H        0.63392994       0.61504881       2.47327442
C        0.01484550      -1.77751727      -0.01636693
H        0.67870853      -2.42144646      -0.68295456
H       -0.62264859      -2.45592969       0.64226336
C        1.78714474       0.01002794       0.00389507
H        2.44202412       0.67113390       0.66197326
H        2.45385902      -0.65136977      -0.64189061
C        0.91606151      -0.90478549       0.90901405
