86
Properties=species:S:1:pos:R:3 pbc="F F F"
C        1.78896548       1.78896548      -1.78896548
C        1.50692699       3.13397583      -1.95110073
N        2.22259197       3.99519961      -2.70647055
C        3.28393057       3.43395067      -3.32439256
S        4.30183959       4.36253265      -4.31753864
C        5.27967697       3.02025670      -4.66170578
Br       6.77341025       3.18625427      -5.79230251
C        4.87072234       1.85341851      -4.04607025
C        5.51481974       0.50686168      -4.14682584
C        3.68252646       2.10043388      -3.25046222
C        2.89210682       1.24846916      -2.44295392
H        0.65188198       3.58694134      -1.45357999
H        6.39906432       0.50118177      -4.78786851
H        4.80467632      -0.21887185      -4.55656204
H        5.82387833       0.16373122      -3.15405114
H        3.14344635       0.19767268      -2.33867399
C       -1.78896548      -1.78896548      -1.78896548
C       -1.41287195      -3.08530681      -2.09382479
N       -2.12011974      -3.94217919      -2.86196320
C       -3.27521414      -3.42950374      -3.33755593
S       -4.29825304      -4.36078876      -4.32286908
C       -5.41018311      -3.08793732      -4.46351904
Br      -6.98060855      -3.29370613      -5.47765234
C       -5.04505897      -1.94375146      -3.78140066
C       -5.80423882      -0.65673225      -3.70753618
C       -3.77396805      -2.14777159      -3.11168293
C       -2.98708037      -1.29767147      -2.29877805
H       -0.48225462      -3.49910982      -1.71103887
H       -6.73990420      -0.67769343      -4.27051697
H       -5.19588936       0.16106106      -4.10753821
H       -6.05013687      -0.42560804      -2.66591578
H       -3.31367966      -0.28583698      -2.08027637
C       -1.78896548       1.78896548       1.78896548
C       -2.99375302       1.31789407       2.28035647
N       -3.84241430       2.01662367       3.06522416
C       -3.42074395       3.26612674       3.35540311
S       -4.35681169       4.29412723       4.33097197
C       -3.21432249       5.54129506       4.20602191
Br      -3.49436781       7.18877492       5.06882429
C       -2.11292242       5.22055688       3.43673179
C       -0.93797765       6.09600273       3.13452689
C       -2.23669023       3.86621223       2.93052011
C       -1.38986767       3.08272469       2.11093753
H       -3.33424253       0.31122133       2.04693944
H       -1.00884787       7.08344374       3.59582300
H       -0.84727206       6.24193390       2.05316054
H       -0.01756487       5.62683298       3.49726284
H       -0.45121064       3.48523826       1.74334412
C        1.78896548      -1.78896548       1.78896548
C        3.04913905      -1.36755471       2.17530979
N        3.90275746      -2.07072537       2.95077930
C        3.42588472      -3.27067960       3.34570949
S        4.35893771      -4.29593371       4.32703947
C        3.13749031      -5.47227168       4.35187747
Br       3.37238488      -7.07919091       5.30039123
C        2.01027636      -5.12841289       3.63152185
C        0.76756166      -5.94310511       3.45784048
C        2.18284580      -3.81791510       3.03266166
C        1.33394801      -3.03253391       2.21704798
H        3.43412354      -0.40082854       1.85745123
H        0.80815596      -6.90337027       3.97658837
H        0.59881039      -6.14798801       2.39556811
H       -0.09756099      -5.39462003       3.84460166
H        0.35097522      -3.39529613       1.93352166
C       -0.00445707       0.01189536      -1.78238275
H       -0.66409135       0.67374010      -2.43557963
H        0.65740317      -0.63156657      -2.45157240
C       -0.90989263      -0.90692880      -0.91072765
C        0.90977584       0.90977584      -0.90977584
C       -0.00465871       1.77757030       0.00794375
H       -0.66225468       2.44313916      -0.64384735
H        0.64322798       2.43503045       0.67728295
C       -1.78241447       0.00034974      -0.00472694
H       -2.45427497      -0.65498947       0.64260836
H       -2.43311707       0.67328779      -0.65473579
C       -0.91132561       0.90220522       0.91563759
C       -0.01476271      -0.02253852       1.78660255
H       -0.67934791      -0.69751639       2.42135241
H        0.63392994       0.61504881       2.47327442
C        0.01484550      -1.77751727      -0.01636693
H        0.67870853      -2.42144646      -0.68295456
H       -0.62264859      -2.45592969       0.64226336
C        1.78714474       0.01002794       0.00389507
H        2.44202412       0.67113390       0.66197326
H        2.45385902      -0.65136977      -0.64189061
C        0.91606151      -0.90478549       0.90901405
