146
Properties=species:S:1:pos:R:3 pbc="F F F"
C        1.78642828       1.78642828      -1.78642828
S        3.23072337       1.18460175      -2.44072093
C        3.54951055       2.65885468      -3.22163970
C        2.56312411       3.61154791      -2.99020250
C        1.51570717       3.09688603      -2.12908130
C        0.33068880       3.90912847      -1.71104642
C        2.74783727       4.86894161      -3.61510876
C        3.88207032       5.10035654      -4.40800139
C        4.77790301       4.03821159      -4.53020993
N        4.65928794       2.81364656      -3.97050491
C        4.11357176       6.39080674      -5.07171491
C        3.96234903       7.60306230      -4.39852402
N        4.14295100       8.83980554      -4.91265664
C        4.51454143       8.84769529      -6.20810779
C        4.71652941       7.73578479      -7.01993030
C        4.50059967       6.47201261      -6.41836914
C        5.11775293       8.11835556      -8.36039434
C        5.40618792       7.12464428      -9.44006492
C        5.17458870       9.49454151      -8.46163508
S        4.78667114      10.31063625      -7.02658394
Br       5.62993210      10.44683996     -10.01868120
H       -0.25784151       3.43085231      -0.92492122
H       -0.32658758       4.08033864      -2.56958538
H        0.65480048       4.88131944      -1.32579395
H        1.99627762       5.64341630      -3.48362091
H        5.68933481       4.15190211      -5.11632620
H        3.68066286       7.61642113      -3.34612279
H        4.62483542       5.57146399      -7.01355337
H        5.87496813       7.57333390     -10.31973497
H        4.47749959       6.64040511      -9.76139404
H        6.08832234       6.35040418      -9.07155505
C       -1.78642828      -1.78642828      -1.78642828
S       -2.88328333      -1.09384875      -2.87891396
C       -3.39515550      -2.62327308      -3.41157635
C       -2.73681072      -3.66350909      -2.76455471
C       -1.78363611      -3.16772391      -1.79031447
C       -0.93857003      -4.06753448      -0.94475918
C       -3.09859920      -4.97485840      -3.15843005
C       -4.07812077      -5.16800272      -4.14430477
C       -4.64491890      -4.01468907      -4.68671655
N       -4.34125216      -2.73762017      -4.36456707
C       -4.48488761      -6.51114306      -4.58006274
C       -4.76937648      -7.52701434      -3.66754453
N       -5.14377522      -8.79241177      -3.95922619
C       -5.24632752      -9.04492044      -5.27909655
C       -5.00763811      -8.14843063      -6.31617576
C       -4.61009197      -6.84282261      -5.93806685
C       -5.22136507      -8.76205302      -7.61308473
C       -5.04157229      -8.02661055      -8.90271428
C       -5.59279412     -10.08283346      -7.45513772
S       -5.70380019     -10.58188971      -5.83820143
Br      -5.95532402     -11.28008250      -8.86004675
H       -0.41553567      -3.53530823      -0.14708812
H       -0.18905294      -4.56849678      -1.56578672
H       -1.55961740      -4.83337100      -0.46892547
H       -2.60015361      -5.82458239      -2.69857883
H       -5.42426211      -4.08875598      -5.44454503
H       -4.71008110      -7.33672431      -2.59640137
H       -4.39153293      -6.10914228      -6.70917756
H       -5.42540532      -8.57697779      -9.76565388
H       -3.97832069      -7.82629709      -9.07468096
H       -5.57151770      -7.06813089      -8.87063298
C       -1.78642828       1.78642828       1.78642828
S       -1.77498735       3.47294948       1.60810921
C       -2.93014556       3.66081702       2.83904236
C       -3.32894520       2.44717657       3.38875275
C       -2.64323177       1.32957982       2.76886290
C       -2.87547589      -0.09340292       3.16879073
C       -4.30008662       2.51444484       4.41735618
C       -4.79846354       3.75820827       4.83375644
C       -4.28549984       4.87936157       4.18146312
N       -3.36746090       4.88650942       3.18946909
C       -5.80423009       3.87290841       5.89895492
C       -5.68646033       3.17599679       7.10147823
N       -6.55213969       3.20435697       8.13891653
C       -7.61576754       4.00910047       7.94547650
C       -7.88097215       4.77609754       6.81517481
C       -6.93646175       4.69115599       5.76336369
C       -9.11444488       5.52643302       6.95562493
C       -9.63979242       6.43811443       5.89299027
C       -9.69453797       5.25664416       8.17958316
S       -8.81245835       4.17199185       9.13944113
Br     -11.31625695       5.98664049       8.79255583
H       -2.15083285      -0.78301376       2.73011293
H       -3.87604720      -0.41040521       2.85769445
H       -2.80340878      -0.19773423       4.25623932
H       -4.66182268       1.59354490       4.86794726
H       -4.61390589       5.87888784       4.46476939
H       -4.82438726       2.53513442       7.28368511
H       -7.10580827       5.25435322       4.84969129
H      -10.46828399       7.06272151       6.23703149
H       -9.99073387       5.85208782       5.03647705
H       -8.84950479       7.11366479       5.54711199
C        1.78642828      -1.78642828       1.78642828
S        1.58881004      -3.47080631       1.79642969
C        2.84791043      -3.66180181       2.92029269
C        3.42267954      -2.45094414       3.29125084
C        2.78688861      -1.33158157       2.62320431
C        3.20117399       0.08980676       2.83949647
C        4.48948279      -2.52245449       4.21995036
C        4.90517232      -3.76613900       4.71911694
C        4.21536828      -4.88312673       4.24782951
N        3.19774915      -4.88742892       3.35826134
C        6.00555107      -3.88474590       5.68579645
C        6.09004018      -3.06367673       6.81021845
N        7.05735562      -3.08424977       7.75380780
C        8.00851023      -4.01610036       7.54573392
C        8.07084147      -4.91553916       6.48586386
C        7.02957504      -4.83176859       5.52963778
C        9.23202631      -5.77922710       6.58524942
C        9.54477415      -6.84364456       5.58247841
C        9.96684915      -5.45511982       7.70879631
S        9.30709598      -4.19060990       8.62618546
Br      11.56592633      -6.29462293       8.23490401
H        2.50447570       0.80807074       2.40152706
H        4.18793012       0.26268271       2.39808902
H        3.25964684       0.30840570       3.91067273
H        4.98777051      -1.60685125       4.52869307
H        4.47247863      -5.87974394       4.60534055
H        5.32079384      -2.31715559       7.00525735
H        7.04103933      -5.49770213       4.67111131
H       10.34021278      -7.51837927       5.90944495
H        9.85572215      -6.38726437       4.63631222
H        8.65839362      -7.45917221       5.39271574
C       -0.00445707       0.01189536      -1.78238275
H       -0.66409135       0.67374010      -2.43557963
H        0.65740317      -0.63156657      -2.45157240
C       -0.90989263      -0.90692880      -0.91072765
C        0.90977584       0.90977584      -0.90977584
C       -0.00465871       1.77757030       0.00794375
H       -0.66225468       2.44313916      -0.64384735
H        0.64322798       2.43503045       0.67728295
C       -1.78241447       0.00034974      -0.00472694
H       -2.45427497      -0.65498947       0.64260836
H       -2.43311707       0.67328779      -0.65473579
C       -0.91132561       0.90220522       0.91563759
C       -0.01476271      -0.02253852       1.78660255
H       -0.67934791      -0.69751639       2.42135241
H        0.63392994       0.61504881       2.47327442
C        0.01484550      -1.77751727      -0.01636693
H        0.67870853      -2.42144646      -0.68295456
H       -0.62264859      -2.45592969       0.64226336
C        1.78714474       0.01002794       0.00389507
H        2.44202412       0.67113390       0.66197326
H        2.45385902      -0.65136977      -0.64189061
C        0.91606151      -0.90478549       0.90901405
