125
Properties=species:S:1:pos:R:3 pbc="F F F"
C        0.00000000       0.00000000       0.00000000
C        0.87652425       0.87652425      -0.87652425
S        2.32081935       0.27469772      -1.53081690
C        2.63960653       1.74895065      -2.31173568
C        1.65322008       2.70164389      -2.08029847
C        0.60580314       2.18698200      -1.21917727
C       -0.57921523       2.99922445      -0.80114240
C        1.83793325       3.95903759      -2.70520473
C        2.97216629       4.19045252      -3.49809737
C        3.86799898       3.12830756      -3.62030590
N        3.74938391       1.90374254      -3.06060089
C        3.20366774       5.48090272      -4.16181088
C        3.05244501       6.69315828      -3.48862000
N        3.23304697       7.92990152      -4.00275262
C        3.60463741       7.93779127      -5.29820376
C        3.80662539       6.82588077      -6.11002627
C        3.59069564       5.56210859      -5.50846512
C        4.20784890       7.20845154      -7.45049031
C        4.49628390       6.21474025      -8.53016090
C        4.26468468       8.58463749      -7.55173106
S        3.87676712       9.40073223      -6.11667992
Br       4.72002808       9.53693594      -9.10877718
H       -1.16774553       2.52094829      -0.01501719
H       -1.23649161       3.17043462      -1.65968136
H       -0.25510355       3.97141542      -0.41588993
H        1.08637360       4.73351228      -2.57371689
H        4.77943078       3.24199809      -4.20642217
H        2.77075884       6.70651711      -2.43621876
H        3.71493139       4.66155996      -6.10364934
H        4.96506410       6.66342987      -9.40983095
H        3.56759556       5.73050109      -8.85149001
H        5.17841831       5.44050015      -8.16165103
C       -0.87652425      -0.87652425      -0.87652425
S       -0.48335707      -1.13746094      -2.50551596
C       -1.83705776      -2.13992952      -2.72330559
C       -2.59094128      -2.28104176      -1.56317940
C       -2.02524639      -1.52304553      -0.46367050
C       -2.63451802      -1.48912448       0.90249088
C       -3.73452167      -3.11121816      -1.65643574
C       -4.05677477      -3.73028565      -2.87365576
C       -3.19730006      -3.47672559      -3.94258680
N       -2.08791089      -2.70491995      -3.92089650
C       -5.23526723      -4.59672690      -3.01438721
C       -6.48661677      -4.22379260      -2.52381391
N       -7.62827178      -4.94366329      -2.59376604
C       -7.49241386      -6.13048209      -3.21773649
C       -6.32467618      -6.64907967      -3.76877657
C       -5.16454303      -5.84538754      -3.65133877
C       -6.54833508      -7.95153145      -4.36692423
C       -5.46681902      -8.73792885      -5.03643718
C       -7.86898527      -8.32332410      -4.20874384
S       -8.81920759      -7.17473615      -3.40023553
Br      -8.61601223      -9.94281258      -4.80691639
H       -2.18580561      -0.73293088       1.55051655
H       -2.51803376      -2.46343387       1.38784326
H       -3.70366651      -1.26336626       0.83483097
H       -4.34812857      -3.27197925      -0.77349494
H       -3.39528378      -3.91010998      -4.92245728
H       -6.62019896      -3.26029022      -2.03300553
H       -4.22124957      -6.21203975      -4.04685138
H       -5.84642338      -9.59850852      -5.59339302
H       -4.75401745      -9.10547407      -4.29009515
H       -4.92407328      -8.10720194      -5.74929427
C       -0.87652425       0.87652425       0.87652425
S       -2.36203250       1.46071979       0.30358168
C       -2.66996807       2.26009545       1.77022934
C       -1.64939377       2.08680643       2.69896224
C       -0.57619339       1.26953882       2.16623021
C        0.65227709       0.92540918       2.94801953
C       -1.83270117       2.71410368       3.95537072
C       -2.99073297       3.46651835       4.20346485
C       -3.91230535       3.54494771       3.15935938
N       -3.80503720       2.96594337       1.94274677
C       -3.21902637       4.13568826       5.49166671
C       -2.22685932       4.89281187       6.11455210
N       -2.32858163       5.54110642       7.29601306
C       -3.53330116       5.41953554       7.88779574
C       -4.62855918       4.71204571       7.40192754
C       -4.44842955       4.04959417       6.16324563
C       -5.76452518       4.80282793       8.29943764
C       -7.07683160       4.14105368       8.02329976
C       -5.43398764       5.56292996       9.40413561
S       -3.84862273       6.16454911       9.38100742
Br      -6.58527948       5.93627688      10.84418484
H        1.42937683       0.46001103       2.33758575
H        0.39828399       0.23402157       3.75788679
H        1.08578432       1.82874773       3.38923838
H       -1.07435968       2.59415067       4.72509241
H       -4.82637439       4.12657846       3.27489819
H       -1.25282423       5.01798764       5.64268284
H       -5.26573362       3.46597780       5.74842928
H       -7.87085432       4.46753719       8.69993342
H       -6.97595997       3.05439632       8.11923037
H       -7.40938464       4.36712695       7.00405791
C        0.87652425      -0.87652425       0.87652425
S        0.22137289      -2.20908840       1.69587268
C        1.73235874      -2.60484166       2.36309246
C        2.73818205      -1.72977809       1.96720231
C        2.22938269      -0.69464485       1.08793487
C        3.09195893       0.38490966       0.51410235
C        4.03429639      -1.99562221       2.47225697
C        4.24517447      -3.08682460       3.32871712
C        3.12470190      -3.86044407       3.63146648
N        1.86548988      -3.66923352       3.17900394
C        5.57287957      -3.39638586       3.87711591
C        6.38715100      -2.41127124       4.43580105
N        7.62071912      -2.58522042       4.95976158
C        8.05921544      -3.85905617       4.92236083
C        7.37499869      -4.95718625       4.41034749
C        6.09174915      -4.70044579       3.86907441
C        8.14844029      -6.17739720       4.54095326
C        7.65319086      -7.51025396       4.07774023
C        9.36673434      -5.90340378       5.13091510
S        9.58899058      -4.27122282       5.53396586
Br      10.70820163      -7.17416845       5.48337112
H        2.51724766       1.17549941       0.02647169
H        3.77928517      -0.03922640      -0.22488720
H        3.68424788       0.85680259       1.30475651
H        4.86130810      -1.35414281       2.17815186
H        3.21044457      -4.71331704       4.30408944
H        6.04240126      -1.37924406       4.49184940
H        5.52284135      -5.51956501       3.43773434
H        8.27446868      -8.34065636       4.42319988
H        7.62646348      -7.54018512       2.98293807
H        6.63906470      -7.68975768       4.45174712
