170
Properties=species:S:1:pos:R:3 pbc="F F F"
C        1.78624037       1.78624037      -1.78624037
S        3.11235754       1.12824138      -2.61497128
C        3.50607862       2.63782498      -3.28785511
C        2.63256365       3.64539091      -2.88574986
C        1.60845617       3.14014824      -1.99236193
C        0.54003216       4.01032136      -1.41026385
C        2.88464458       4.93932593      -3.39802981
C        3.96828950       5.12372925      -4.25524459
C        4.75463951       4.02622480      -4.56983077
N        4.56586325       2.76795416      -4.11413114
C        4.25290312       6.41676565      -4.78951395
C        4.47852844       7.51180273      -5.22824479
C        4.76028073       8.90977031      -5.78095539
C        4.98943834      10.00584438      -6.21752102
C        5.27906533      11.30000959      -6.74425680
C        4.49163524      12.39671489      -6.43050835
N        4.68650441      13.65676374      -6.87750535
C        5.75368547      13.79151139      -7.69343096
C        6.62903108      12.78396432      -8.09354751
C        6.37015829      11.48747949      -7.59106225
C        7.66302658      13.29102515      -8.97477693
C        8.73393655      12.42051591      -9.55184606
C        7.49067769      14.64665795      -9.17393326
S        6.15912809      15.30311739      -8.35461307
H       -0.14855940       3.46768769      -0.75865753
H       -0.05186942       4.46485116      -2.21196453
H        0.99149690       4.81397687      -0.81867269
H        2.24400613       5.77346798      -3.12657344
H        5.60934094       4.13076353      -5.23558524
H        3.63127452      12.28964795      -5.77250904
H        7.01199108      10.65389363      -7.86123367
H        9.43044902      12.96400401     -10.19422993
H        8.28516649      11.62164383     -10.15191368
H        9.31688383      11.95959191      -8.74724197
C        8.33530113      15.47692295      -9.99300058
C        9.04267325      16.17226988     -10.67896947
Br      10.18643416      17.29658707     -11.78812314
C       -1.78624037      -1.78624037      -1.78624037
S       -3.43608207      -1.97868953      -1.44079859
C       -3.64735716      -3.01017163      -2.77422993
C       -2.46682881      -3.21150229      -3.48537332
C       -1.35850418      -2.48364347      -2.89881869
C        0.02597978      -2.52276237      -3.46383478
C       -2.54826004      -4.05919484      -4.61454543
C       -3.77794204      -4.62937321      -4.93994809
C       -4.87198938      -4.33917919      -4.13952651
N       -4.85851135      -3.53893024      -3.05050697
C       -3.89589367      -5.49121732      -6.07207173
C       -3.97638305      -6.21521338      -7.02697953
C       -4.07000676      -7.13769140      -8.24330827
C       -4.15099525      -7.86548397      -9.19632452
C       -4.26674400      -8.73397805     -10.32260966
C       -3.17282383      -9.02263697     -11.12339768
N       -3.18379663      -9.83108297     -12.20589391
C       -4.39123521     -10.37133190     -12.47606070
C       -5.57160723     -10.17191795     -11.76301773
C       -5.49322132      -9.31468506     -10.64079365
C       -6.67755461     -10.91172566     -12.33954838
C       -8.06036749     -10.87574849     -11.77018253
C       -6.24807877     -11.61626597     -13.44692416
S       -4.60157561     -11.41598813     -13.79929480
H        0.73811698      -1.91743511      -2.89846769
H        0.02127147      -2.15182415      -4.49439359
H        0.39936608      -3.55241894      -3.47109359
H       -1.66664530      -4.26137825      -5.21602400
H       -5.84848007      -4.76555641      -4.36165323
H       -2.19872956      -8.58818136     -10.90652058
H       -6.37456133      -9.11410416     -10.03845289
H       -8.77115184     -11.49008094     -12.32745018
H       -8.43967428      -9.84822805     -11.77082167
H       -8.04995618     -11.23739288     -10.73636865
C       -7.08015173     -12.46000129     -14.26507164
C       -7.77701284     -13.16662961     -14.95027015
Br      -8.90377832     -14.30918785     -16.05817819
C       -1.78624037       1.78624037       1.78624037
S       -1.71213940       3.47695331       1.66647749
C       -2.89288347       3.66534144       2.87353381
C       -3.34675448       2.44609004       3.37085990
C       -2.68933997       1.32696389       2.72466249
C       -2.98929340      -0.09751491       3.06883889
C       -4.33329818       2.50623064       4.38247149
C       -4.78152575       3.75461186       4.81112573
C       -4.23880756       4.88737977       4.22450775
N       -3.29622742       4.89572598       3.25599515
C       -5.77526521       3.85233943       5.83157808
C       -6.61054152       3.91576575       6.69226869
C       -7.67287806       3.98794437       7.79018400
C       -8.50583547       4.05280750       8.65416077
C       -9.49251390       4.15043455       9.68038326
C      -10.03584006       3.01746520      10.26555322
N      -10.97040876       3.00909908      11.24126566
C      -11.36543858       4.23880471      11.63438453
C      -10.90940581       5.45852515      11.13861194
C       -9.93158236       5.39862989      10.11848778
C      -11.55486561       6.57893930      11.79502375
C      -11.24991677       8.00299472      11.45338703
C      -12.45153189       6.12000398      12.73973303
S      -12.53413076       4.43012616      12.85260162
H       -2.40402562      -0.81272792       2.48648813
H       -4.04817786      -0.31204725       2.88881566
H       -2.77694588      -0.28045958       4.12766015
H       -4.73301182       1.59432777       4.81670796
H       -4.56338857       5.87947931       4.53282184
H       -9.71799434       2.02549065       9.94994651
H       -9.53074233       6.31067647       9.68569958
H      -11.82572208       8.71968659      12.04327430
H      -11.47067340       8.19089800      10.39715259
H      -10.18824681       8.21082609      11.62464479
C      -13.26831570       6.95620953      13.58069943
C      -13.95237214       7.65653168      14.28500879
Br     -15.05843355       8.78889337      15.42381745
C        1.78624037      -1.78624037       1.78624037
S        1.11355980      -2.68072154       3.06128885
C        2.63138106      -3.31662821       3.48374945
C        3.65286114      -2.85218727       2.65865601
C        3.15147987      -1.94160431       1.64788216
C        4.03600965      -1.29526400       0.62934371
C        4.95447221      -3.32994303       2.93758508
C        5.13218742      -4.21695828       3.99811764
C        4.02075987      -4.59397167       4.73596354
N        2.75461561      -4.17371196       4.51962098
C        6.43257902      -4.71781372       4.30878998
C        7.53388484      -5.12773913       4.55695199
C        8.93981092      -5.64347014       4.86772537
C       10.04196295      -6.05131870       5.11952209
C       11.34306142      -6.54478222       5.43548808
C       12.45375465      -6.16859519       4.69650864
N       13.72117926      -6.58031058       4.91928367
C       13.84843242      -7.42715503       5.96304037
C       12.82684345      -7.88967106       6.79002839
C       11.52324138      -7.42155207       6.50390659
C       13.32930286      -8.78838531       7.81114049
C       12.44418478      -9.42979779       8.83231594
C       14.69585012      -8.93691979       7.67849899
S       15.36749109      -8.05170484       6.39766261
H        3.49446946      -0.63882044      -0.05550408
H        4.53671864      -2.06102336       0.02720427
H        4.80383291      -0.69326626       1.12704728
H        5.79950926      -3.00961550       2.33492279
H        4.11971740      -5.28458626       5.57138606
H       12.35272119      -5.48561788       3.85509244
H       10.67867700      -7.74061838       7.10782299
H       12.98600485     -10.07727026       9.52540785
H       11.68133906     -10.04019690       8.33718803
H       11.93728432      -8.66104414       9.42538924
C       15.52526288      -9.75648747       8.52347431
C       16.21989606     -10.44287541       9.23114114
Br      17.34305917     -11.55270664      10.37537856
C       -0.00445707       0.01189536      -1.78238275
H       -0.66409135       0.67374010      -2.43557963
H        0.65740317      -0.63156657      -2.45157240
C       -0.90989263      -0.90692880      -0.91072765
C        0.90977584       0.90977584      -0.90977584
C       -0.00465871       1.77757030       0.00794375
H       -0.66225468       2.44313916      -0.64384735
H        0.64322798       2.43503045       0.67728295
C       -1.78241447       0.00034974      -0.00472694
H       -2.45427497      -0.65498947       0.64260836
H       -2.43311707       0.67328779      -0.65473579
C       -0.91132561       0.90220522       0.91563759
C       -0.01476271      -0.02253852       1.78660255
H       -0.67934791      -0.69751639       2.42135241
H        0.63392994       0.61504881       2.47327442
C        0.01484550      -1.77751727      -0.01636693
H        0.67870853      -2.42144646      -0.68295456
H       -0.62264859      -2.45592969       0.64226336
C        1.78714474       0.01002794       0.00389507
H        2.44202412       0.67113390       0.66197326
H        2.45385902      -0.65136977      -0.64189061
C        0.91606151      -0.90478549       0.90901405
