146
Properties=species:S:1:pos:R:3 pbc="F F F"
C        1.78911527       1.78911527      -1.78911527
C        1.38648236       3.06516498      -2.14047891
N        2.09144334       3.91923456      -2.91328395
C        3.27183129       3.42470300      -3.34487227
C        3.80134205       2.16765952      -3.06516796
C        3.01448882       1.31867407      -2.25133220
C        5.09598478       1.98945363      -3.68936691
C        5.91832804       0.74393187      -3.56225568
C        5.46039546       3.11303273      -4.42114379
S        4.28653842       4.35496667      -4.33718866
C        6.65776543       3.31201684      -5.20038069
S        6.89068299       2.41856099      -6.64135348
C        8.37820055       3.17399719      -6.94970748
C        8.71910565       4.10845188      -5.97623569
C        7.71071228       4.18052006      -4.93907913
C        7.80053309       5.08780951      -3.75049499
C        9.94247003       4.79479777      -6.16227821
C       10.71067658       4.49185190      -7.28271208
C       10.25241213       3.53408171      -8.16981586
N        9.09554027       2.84830938      -8.04664702
Br      12.35007926       5.37527011      -7.57994496
H        0.43483576       3.46309811      -1.79509531
H        3.36001786       0.32231318      -1.99562963
H        6.98983104       0.96675876      -3.58698516
H        5.68536087       0.05473533      -4.38028404
H        5.72017593       0.23218460      -2.61523076
H        7.32353724       4.64402219      -2.87098425
H        7.31214202       6.04264811      -3.96922754
H        8.84234119       5.28845496      -3.48213997
H       10.27185880       5.54178539      -5.44703511
H       10.82957479       3.27383983      -9.05432849
C       -1.78911527      -1.78911527      -1.78911527
C       -1.64775891      -3.16526593      -1.77910142
N       -2.37575958      -4.02843796      -2.51976431
C       -3.29477935      -3.43487987      -3.31174734
C       -3.54753108      -2.06966268      -3.41697578
C       -2.75082873      -1.21719640      -2.61646995
C       -4.61465305      -1.80147259      -4.35867969
C       -5.11913514      -0.42763639      -4.67774406
C       -5.09212847      -2.97671555      -4.92572796
S       -4.29334217      -4.36387452      -4.32147706
C       -6.12825296      -3.12351040      -5.91839960
S       -5.85479422      -2.57835829      -7.51744495
C       -7.39261573      -3.08401599      -8.02527350
C       -8.13127653      -3.67063399      -7.00188270
C       -7.39034416      -3.68252130      -5.75744602
C       -7.92525076      -4.23966653      -4.47392030
C       -9.42483090      -4.13197788      -7.34273723
C       -9.86535426      -3.96716257      -8.65272373
C       -9.02614433      -3.36011011      -9.57005527
N       -7.78380263      -2.90170882      -9.30498521
Br     -11.58075222      -4.56246649      -9.16207561
H       -0.90614938      -3.64369628      -1.14318352
H       -2.88721288      -0.14117921      -2.64956858
H       -6.18710756      -0.43851815      -4.91794925
H       -4.57257230      -0.01567007      -5.53213788
H       -4.98961572       0.25019522      -3.82817078
H       -7.53405248      -3.69667370      -3.60781750
H       -7.65011590      -5.29483919      -4.37906259
H       -9.01622459      -4.16415087      -4.43256066
H      -10.05722208      -4.60518026      -6.59827697
H       -9.34095287      -3.21560925     -10.60118099
C       -1.78911527       1.78911527       1.78911527
C       -2.93806875       1.28347399       2.37058352
N       -3.78148778       1.97980295       3.16267113
C       -3.41634065       3.26505381       3.36001209
C       -2.28959517       3.90016790       2.84440647
C       -1.44599243       3.11767722       2.02082544
C       -2.21637116       5.27989587       3.27853830
C       -1.11225680       6.21684635       2.89541245
C       -3.30182794       5.61340934       4.07933469
S       -4.36439897       4.29418307       4.32011170
C       -3.59863628       6.89006345       4.68146323
S       -4.04813268       8.21141085       3.69105394
C       -4.23503679       9.23814710       5.02872133
C       -3.96447330       8.60241455       6.23690538
C       -3.57753142       7.22200478       6.03077527
C       -3.21544498       6.28302760       7.14036502
C       -4.10730915       9.38527738       7.40695948
C       -4.49695013      10.71480857       7.27348186
C       -4.72882339      11.22072093       6.00676538
N       -4.61062223      10.52385157       4.85602287
Br      -4.70191421      11.80434084       8.79903927
H       -3.23388589       0.24906489       2.21007840
H       -0.55232279       3.54643501       1.57920287
H       -0.91095116       6.94460035       3.68802345
H       -1.37916089       6.75877527       1.98244409
H       -0.17810395       5.67634488       2.71314245
H       -2.46284329       5.55574528       6.81995510
H       -4.10422080       5.74109427       7.47870260
H       -2.79564418       6.82197924       7.99531270
H       -3.91852234       8.95624395       8.38591301
H       -5.03350194      12.25573773       5.86850344
C        1.78911527      -1.78911527       1.78911527
C        2.82714363      -1.24259621       2.52238641
N        3.66078003      -1.93520514       3.32797669
C        3.40659243      -3.26088327       3.37393086
C        2.39735383      -3.94019443       2.69662128
C        1.55793136      -3.15912210       1.86744163
C        2.42073531      -5.35669863       2.99737138
C        1.45159559      -6.34611743       2.42680257
C        3.45815656      -5.66902607       3.86738934
S        4.36148490      -4.29047875       4.32673009
C        3.82338290      -6.96689104       4.37988901
S        4.48566364      -8.14026605       3.32466778
C        4.65230167      -9.27184956       4.57775399
C        4.21489823      -8.78345348       5.80544152
C        3.71506486      -7.42934022       5.68590639
C        3.16612730      -6.63885806       6.83385224
C        4.32895583      -9.66086418       6.90972600
C        4.85664621     -10.93119818       6.69739617
C        5.24823706     -11.28863521       5.41943744
N        5.16526789     -10.49616354       4.32906524
Br       5.03063221     -12.14174241       8.13291970
H        3.03378930      -0.17531453       2.48392534
H        0.75305240      -3.62040378       1.30450448
H        1.25264242      -7.16265040       3.12828214
H        1.85002630      -6.77063120       1.49972274
H        0.48908442      -5.87547429       2.20303257
H        2.37763552      -5.95348511       6.50742304
H        3.96428955      -6.05575467       7.30397345
H        2.72664882      -7.29370520       7.59258211
H        4.01310936      -9.34775972       7.89981022
H        5.66342170     -12.27409958       5.22022183
C       -0.00445707       0.01189536      -1.78238275
H       -0.66409135       0.67374010      -2.43557963
H        0.65740317      -0.63156657      -2.45157240
C       -0.90989263      -0.90692880      -0.91072765
C        0.90977584       0.90977584      -0.90977584
C       -0.00465871       1.77757030       0.00794375
H       -0.66225468       2.44313916      -0.64384735
H        0.64322798       2.43503045       0.67728295
C       -1.78241447       0.00034974      -0.00472694
H       -2.45427497      -0.65498947       0.64260836
H       -2.43311707       0.67328779      -0.65473579
C       -0.91132561       0.90220522       0.91563759
C       -0.01476271      -0.02253852       1.78660255
H       -0.67934791      -0.69751639       2.42135241
H        0.63392994       0.61504881       2.47327442
C        0.01484550      -1.77751727      -0.01636693
H        0.67870853      -2.42144646      -0.68295456
H       -0.62264859      -2.45592969       0.64226336
C        1.78714474       0.01002794       0.00389507
H        2.44202412       0.67113390       0.66197326
H        2.45385902      -0.65136977      -0.64189061
C        0.91606151      -0.90478549       0.90901405
