149
Properties=species:S:1:pos:R:3 pbc="F F F"
C        0.00000000       0.00000000       0.00000000
C        0.87902758       0.87902758      -0.87902758
C        0.59017964       2.22190928      -1.04747935
N        1.30439271       3.08300554      -1.80219396
C        2.37049246       2.52394747      -2.41222333
C        2.77569697       1.19350736      -2.33149656
C        1.98751992       0.34028030      -1.52567861
C        3.96496076       0.95463462      -3.12041520
C        4.63540542      -0.38077471      -3.23073905
C        4.38173432       2.11848173      -3.74416627
S        3.38421962       3.45659539      -3.40136979
C        5.51771891       2.23569088      -4.59241339
C        6.47634625       2.32283052      -5.30484128
C        7.69481226       2.42602307      -6.20842490
C        8.65322210       2.51424402      -6.92102710
C        9.78930354       2.63264072      -7.76899686
S       10.78702165       1.29447955      -8.11303029
C       11.80110956       2.23030547      -9.09883993
C       11.39709980       3.56062279      -9.17811697
C       10.20599806       3.79747357      -8.39147440
C        9.53385246       5.13206698      -8.28152302
C       12.18821259       4.41418996      -9.98049510
C       13.29778901       3.87459398     -10.62509326
C       13.58435476       2.53072473     -10.45849572
N       12.86726819       1.66912764      -9.70681485
H       -0.26865266       2.67321973      -0.55625437
H        2.24503720      -0.70846600      -1.41708730
H        5.51999243      -0.35472719      -3.87443507
H        3.94349341      -1.11793536      -3.65077322
H        4.95641506      -0.72595326      -2.24264887
H        8.64793942       5.10450440      -7.63970561
H        9.21430466       5.47734727      -9.27006890
H       10.22397758       5.86988100      -7.85978192
H       11.93267133       5.46353573     -10.08778729
H       14.44367808       2.07910866     -10.94860854
C       14.13297577       4.70626706     -11.45236768
C       14.83244468       5.40279325     -12.14521001
Br      15.96342676       6.52901721     -13.26547746
C       -0.87902758      -0.87902758      -0.87902758
C       -0.52895604      -2.19262121      -1.13799102
N       -1.23762060      -3.05111640      -1.90085520
C       -2.36466289      -2.52126108      -2.42073928
C       -2.83501762      -1.22194804      -2.24373523
C       -2.04931450      -0.36985714      -1.43430720
C       -4.07786024      -1.00871457      -2.95343578
C       -4.82368016       0.29079966      -2.95248925
C       -4.46646832      -2.15927995      -3.61863404
S       -3.38132758      -3.45546334      -3.40539390
C       -5.64055299      -2.29489357      -4.41037661
C       -6.63176870      -2.39778015      -5.07446919
C       -7.89194978      -2.52111462      -5.91619584
C       -8.88290083      -2.62505771      -6.58053468
C      -10.05700314      -2.76187555      -7.37206243
S      -11.14241887      -1.46559032      -7.58652230
C      -12.15908592      -2.40315918      -8.56800986
C      -11.68984724      -3.70249436      -8.74349796
C      -10.44540816      -3.91348714      -8.03605073
C       -9.69795687      -5.21207226      -8.03741332
C      -12.47826544      -4.55527302      -9.54935920
C      -13.64956279      -4.04542691     -10.10248655
C      -13.99751608      -2.73062134      -9.84543779
N      -13.28618420      -1.87130331      -9.08572317
H        0.37900928      -2.62039268      -0.71943805
H       -2.35584242       0.65544173      -1.25325781
H       -5.74046432       0.24932714      -3.54856313
H       -4.19679767       1.08709394      -3.36662754
H       -5.10647946       0.56419380      -1.93082501
H       -8.78003724      -5.16891443      -7.44319776
H       -9.41663527      -5.48562586      -9.05945970
H      -10.32292693      -6.00900830      -7.62170529
H      -12.17360246      -5.58135007      -9.72904180
H      -14.90592460      -2.30263211     -10.26283857
C      -14.48449127      -4.87753231     -10.92958692
C      -15.18374388      -5.57442058     -11.62228349
Br     -16.31437619      -6.70122998     -12.74231525
C       -0.87902758       0.87902758       0.87902758
C       -2.09182003       0.41258447       1.35516376
N       -2.94083518       1.11030464       2.13845239
C       -2.51099987       2.35281667       2.44284671
C       -1.31920826       2.94730127       2.03419136
C       -0.47149709       2.16665440       1.21532734
C       -1.19413556       4.29192254       2.55395249
C       -0.01977722       5.18223072       2.28336182
C       -2.29708387       4.62555831       3.32174013
S       -3.44907274       3.37394984       3.41916224
C       -2.49427246       5.87072921       3.98082150
C       -2.64979447       6.92271075       4.53151283
C       -2.84060331       8.26078872       5.22786820
C       -2.99711862       9.31243264       5.77894196
C       -3.19502756      10.55706256       6.43885101
S       -2.04362858      11.80974458       6.34115833
C       -2.98214523      12.82750582       7.32060392
C       -4.17264658      12.23262215       7.73057083
C       -4.29804176      10.88936353       7.20754074
C       -5.47253454       9.99865182       7.47625610
C       -5.01774586      13.01217476       8.55297705
C       -4.60806924      14.29911443       8.89029257
C       -3.39629655      14.76601571       8.41126295
N       -2.54952338      14.06916645       7.62452085
H       -2.43892231      -0.58851072       1.11040985
H        0.47312011       2.56632660       0.86045200
H       -0.11411422       6.16004514       2.76554095
H        0.08478292       5.35393201       1.20718219
H        0.90003562       4.71876138       2.65438491
H       -5.37851950       9.02201923       6.99161069
H       -6.39220801      10.46325385       7.10625896
H       -5.57721573       9.82443693       8.55198785
H       -5.96145627      12.61242228       8.91011579
H       -3.04818040      15.76663500       8.65657988
C       -5.43614790      15.12939417       9.72606844
C       -6.12966377      15.82475345      10.42603073
Br      -7.25102028      16.94909060      11.55781055
C        0.87902758      -0.87902758       0.87902758
C        2.14751497      -0.46550006       1.24655324
N        3.00159094      -1.16794762       2.02005364
C        2.51632874      -2.35772402       2.43261049
C        1.26526026      -2.89594975       2.13949088
C        0.41528667      -2.11322529       1.32496687
C        1.09144914      -4.19425218       2.75430927
C       -0.15151878      -5.01962209       2.61726645
C        2.22006778      -4.55198533       3.47232921
S        3.45176682      -3.37612727       3.41429072
C        2.38264164      -5.76399797       4.19918357
C        2.50855764      -6.78761174       4.80784867
C        2.66146524      -8.08939664       5.57839835
C        2.78841690      -9.11271641       6.18735991
C        2.95179687     -10.32418663       6.91495762
S        1.72060034     -11.50116987       6.97276128
C        2.65689873     -12.51604961       7.95730663
C        3.90679443     -11.97725891       8.25178623
C        4.08062434     -10.68053868       7.63378301
C        5.32362658      -9.85489277       7.76892311
C        4.75447079     -12.75849913       9.06992775
C        4.28870308     -13.99180650       9.51696667
C        3.02101022     -14.40603848       9.14652651
N        2.16888292     -13.70482260       8.36950517
H        2.53930465       0.49308484       0.91460163
H       -0.57391491      -2.47053528       1.05703813
H       -0.08646575      -5.96957959       3.15658648
H       -0.33791901      -5.25074552       1.56350476
H       -1.01393382      -4.47378006       3.01326442
H        5.25865647      -8.90628735       7.22720560
H        6.18590044     -10.40178955       7.37403084
H        5.51027426      -9.62130218       8.82206407
H        5.74292490     -12.40090778       9.34016166
H        2.62827799     -15.36404694       9.47907036
C        5.11715642     -14.82159721      10.35285687
C        5.81098609     -15.51654694      11.05291492
Br       6.93284999     -16.64022187      12.18484957
