162
Properties=species:S:1:pos:R:3 pbc="F F F"
C        1.78893160       1.78893160      -1.78893160
C        1.50008367       3.13181330      -1.95738338
N        2.21429673       3.99290956      -2.71209798
C        3.28039649       3.43385149      -3.32212735
C        3.68560100       2.10341139      -3.24140058
C        2.89742395       1.25018432      -2.43558264
C        4.87486479       1.86453865      -4.03031923
C        5.54530944       0.52912932      -4.14064307
C        5.29163834       3.02838576      -4.65407029
S        4.29412365       4.36649942      -4.31127382
C        6.42762294       3.14559490      -5.50231741
C        7.38625027       3.23273454      -6.21474531
C        8.60471628       3.33592710      -7.11832893
C        9.56312613       3.42414804      -7.83093113
C       10.69920757       3.54254474      -8.67890088
S       11.69692567       2.20438358      -9.02293431
C       12.71101359       3.14020950     -10.00874395
C       12.30700382       4.47052682     -10.08802099
C       11.11590209       4.70737759      -9.30137842
C       10.44375648       6.04197100      -9.19142705
C       13.09811662       5.32409399     -10.89039913
C       14.20769303       4.78449801     -11.53499729
C       14.49425878       3.44062875     -11.36839974
N       13.77717221       2.57903167     -10.61671887
Br      15.30130488       5.87350896     -12.61824855
H        0.64125137       3.58312376      -1.46615839
H        3.15494123       0.20143802      -2.32699132
H        6.42989646       0.55517683      -4.78433909
H        4.85339744      -0.20803134      -4.56067725
H        5.86631908       0.18395076      -3.15255289
H        9.55784344       6.01440842      -8.54960963
H       10.12420869       6.38725129     -10.17997292
H       11.13388161       6.77978503      -8.76968595
H       12.84257535       6.37343975     -10.99769131
H       15.35358210       2.98901268     -11.85851257
C       -1.78893160      -1.78893160      -1.78893160
C       -1.44812066      -3.10772058      -2.03343910
N       -2.15762488      -3.96667799      -2.79500142
C       -3.27544944      -3.43164320      -3.32928269
C       -3.73594934      -2.12680800      -3.16765562
C       -2.94987167      -1.27451483      -2.35880440
C       -4.97068776      -1.90902656      -3.89000834
C       -5.70510533      -0.60314249      -3.90683402
C       -5.36355752      -3.06195090      -4.54858597
S       -4.29167089      -4.36557202      -4.31465397
C       -6.53188053      -3.19430252      -5.34935220
C       -7.51816811      -3.29439819      -6.02116381
C       -8.77204079      -3.41416258      -6.87276894
C       -9.75807084      -3.51531912      -7.54481533
C      -10.92642386      -3.64887284      -8.34535649
S      -11.99857401      -2.34515816      -8.58051140
C      -13.01485466      -3.28242564      -9.56268673
C      -12.55548405      -4.58726007      -9.72280751
C      -11.31911020      -4.80283450      -9.00271341
C      -10.58304967      -6.10780730      -8.98629756
C      -13.34431349      -5.44018626     -10.52810998
C      -14.50627666      -4.92506631     -11.09584535
C      -14.84494233      -3.60510056     -10.85324438
N      -14.13273653      -2.74537100     -10.09481522
Br     -15.59960680      -6.01455408     -12.17890151
H       -0.54758689      -3.53966705      -1.60327958
H       -3.24898632      -0.24505670      -2.18932755
H       -6.61701955      -0.64187914      -4.51051369
H       -5.06772584       0.18404337      -4.32236088
H       -5.99434367      -0.31839309      -2.89008597
H       -9.66996923      -6.06741153      -8.38448074
H      -10.29528698      -6.39270669     -10.00343924
H      -11.21853607      -6.89563772      -8.56917880
H      -13.04708229      -6.47039442     -10.69622971
H      -15.74592736      -3.17292245     -11.28225755
C       -1.78893160       1.78893160       1.78893160
C       -3.00608670       1.32594693       2.25724670
N       -3.85549792       2.02397571       3.03983065
C       -3.42132064       3.26304072       3.35201397
C       -2.22488606       3.85384864       2.95167826
C       -1.37699799       3.07306632       2.13312660
C       -2.09599557       5.19544257       3.47828452
C       -0.91626404       6.08150766       3.21731013
C       -3.20095341       5.53065196       4.24248902
S       -4.35918614       4.28399444       4.32871631
C       -3.39542942       6.77365448       4.90645135
C       -3.54863132       7.82378088       5.46131792
C       -3.73647009       9.15948554       6.16301667
C       -3.89066863      10.20927718       6.71825948
C       -4.08587135      11.45173825       7.38304360
S       -2.92822224      12.69947332       7.29654801
C       -3.86656179      13.71704270       8.27636255
C       -5.06171411      13.12582361       8.67801392
C       -5.19090549      11.78560899       8.14814363
C       -6.37076458      10.89914971       8.40724024
C       -5.90701196      13.90548305       9.50011472
C       -5.49294020      15.18891590       9.84533223
C       -4.27678920      15.65237692       9.37412115
N       -3.42959975      14.95524555       8.58807745
Br      -6.57727819      16.27605550      10.93972869
H       -3.35668962       0.32763036       2.00621353
H       -0.42888843       3.46996981       1.78451233
H       -1.00830704       7.05750126       3.70360407
H       -0.80588598       6.25771648       2.14244088
H       -0.00035570       5.61203203       3.59043500
H       -6.27902653       9.92435088       7.91848409
H       -7.28653308      11.36975259       8.03514723
H       -6.48127327      10.72043000       9.48164932
H       -6.85422569      13.50848453       9.85099619
H       -3.92517727      16.65021027       9.62571981
C        1.78893160      -1.78893160       1.78893160
C        3.06331076      -1.38235920       2.14361038
N        3.91792279      -2.08542885       2.91595264
C        3.42679782      -3.26827446       3.34130305
C        2.16945814      -3.79910509       3.06184974
C        1.31924461      -3.01610691       2.24783939
C        1.99049126      -5.09131958       3.68791182
C        0.74026327      -5.90815191       3.56666665
C        3.12182797      -5.45222267       4.40004375
S        4.36195911      -4.28632093       4.32361685
C        3.28074237      -6.65987948       5.13491339
C        3.40352851      -7.67976680       5.75043481
C        3.55242910      -8.97678396       6.52975925
C        3.67625534      -9.99638298       7.14556697
C        3.83598564     -11.20349794       7.88116961
S        2.59634662     -12.37053043       7.95736651
C        3.53241696     -13.38503839       8.94251169
C        4.78859865     -12.85362347       9.22332951
C        4.96754785     -11.56301547       8.59409478
C        6.21779767     -10.74592190       8.71343496
C        5.63655413     -13.63509235      10.04096326
C        5.16485566     -14.86135345      10.50097921
C        3.89124327     -15.26865855      10.14338546
N        3.03854342     -14.56686225       9.36751708
Br       6.24971198     -15.94782539      11.59552502
H        3.45982731      -0.42936130       1.80134491
H        0.32532662      -3.36784892       1.99019503
H        0.80221875      -6.85444825       4.11274538
H        0.54403355      -6.14585219       2.51615761
H       -0.11491026      -5.35271400       3.96501899
H        6.15589643      -9.80099645       8.16496862
H        7.07283049     -11.30240500       8.31619742
H        6.41428884     -10.50576124       9.76330250
H        6.62974451     -13.28304572      10.30091619
H        3.49379316     -16.22106831      10.48624588
C       -0.00445707       0.01189536      -1.78238275
H       -0.66409135       0.67374010      -2.43557963
H        0.65740317      -0.63156657      -2.45157240
C       -0.90989263      -0.90692880      -0.91072765
C        0.90977584       0.90977584      -0.90977584
C       -0.00465871       1.77757030       0.00794375
H       -0.66225468       2.44313916      -0.64384735
H        0.64322798       2.43503045       0.67728295
C       -1.78241447       0.00034974      -0.00472694
H       -2.45427497      -0.65498947       0.64260836
H       -2.43311707       0.67328779      -0.65473579
C       -0.91132561       0.90220522       0.91563759
C       -0.01476271      -0.02253852       1.78660255
H       -0.67934791      -0.69751639       2.42135241
H        0.63392994       0.61504881       2.47327442
C        0.01484550      -1.77751727      -0.01636693
H        0.67870853      -2.42144646      -0.68295456
H       -0.62264859      -2.45592969       0.64226336
C        1.78714474       0.01002794       0.00389507
H        2.44202412       0.67113390       0.66197326
H        2.45385902      -0.65136977      -0.64189061
C        0.91606151      -0.90478549       0.90901405
