162
Properties=species:S:1:pos:R:3 pbc="F F F"
C        1.80225696       1.80225696      -1.80225696
C        1.89558989       1.42185601      -3.14365550
C        2.67612077       2.16147832      -4.01811327
C        3.35871016       3.28349833      -3.55182609
C        3.28226780       3.70747340      -2.20271348
C        2.48790394       2.94255350      -1.30223887
C        2.42242112       3.36087769       0.04830361
C        3.09994621       4.48769734       0.50575387
C        3.86361162       5.23518467      -0.37777679
C        3.97146183       4.86433769      -1.72909267
C        4.79273303       5.72340618      -2.61476473
C        4.12649965       6.69502550      -3.38165647
C        4.83148993       7.54447194      -4.22073382
C        6.21810289       7.44144792      -4.29860107
C        6.94390335       6.48770143      -3.54562654
C        6.21402324       5.61030356      -2.69421917
C        6.93636222       4.64773023      -1.94920413
C        8.32470355       4.54543966      -2.01645071
C        9.03635441       5.40428974      -2.83852379
C        8.35810007       6.36254701      -3.59728944
H        1.36393292       0.54900019      -3.51330604
H        2.75706434       1.86998850      -5.06117732
H        3.96518154       3.83484399      -4.26946879
H        1.83196170       2.80795772       0.77556232
H        3.02659996       4.78200770       1.54950164
H        4.38428577       6.11902511      -0.01273303
H        3.04339697       6.78702890      -3.32161552
H        4.30582070       8.28951669      -4.81146900
H        6.72935210       8.13140393      -4.96622174
H        6.41379925       3.95054753      -1.29477291
H        8.84440581       3.79532314      -1.42614355
H       10.11902972       5.32119072      -2.88535750
C        9.18213337       7.20674402      -4.42306213
C        9.87226125       7.91375902      -5.11464676
Br      10.98813967       9.05694247      -6.23288061
C       -1.80225696      -1.80225696      -1.80225696
C       -2.44740004      -2.85915320      -1.15454815
C       -3.26606511      -3.71394974      -1.87569751
C       -3.44285974      -3.50844025      -3.24273460
C       -2.81492762      -2.44366474      -3.93386232
C       -1.96665409      -1.57098488      -3.19505734
C       -1.33044222      -0.51469890      -3.88985407
C       -1.51809469      -0.30981719      -5.25397780
C       -2.35368768      -1.15626343      -5.96662198
C       -3.00698215      -2.22635913      -5.33155090
C       -3.89691588      -3.07663017      -6.15735790
C       -5.27308713      -2.79049885      -6.13959563
C       -6.16349749      -3.53397732      -6.89922089
C       -5.68888210      -4.57145674      -7.69781304
C       -4.31398520      -4.90155983      -7.76168629
C       -3.40533952      -4.14232042      -6.97088603
C       -2.03136549      -4.47812250      -7.02380857
C       -1.54934959      -5.50968794      -7.82755639
C       -2.43192877      -6.24363378      -8.60360538
C       -3.79788978      -5.94844282      -8.57160392
H       -2.31483074      -3.02304211      -0.08836630
H       -3.76772045      -4.54010321      -1.38040650
H       -4.09013619      -4.20504467      -3.77431346
H       -0.67021055       0.17658662      -3.37073318
H       -1.01526152       0.51249569      -5.75634021
H       -2.50017165      -0.98414466      -7.03172761
H       -5.65179807      -1.97677599      -5.52346733
H       -7.22552113      -3.30612975      -6.87515551
H       -6.42298071      -5.12418071      -8.27981635
H       -1.30543112      -3.92854552      -6.42514305
H       -0.48633175      -5.73539966      -7.84414110
H       -2.05003328      -7.04557096      -9.22997370
C       -4.63613781      -6.76688667      -9.40891503
C       -5.33817054      -7.45233340     -10.11016309
Br      -6.47329808      -8.56064279     -11.24402188
C       -1.80225696       1.80225696       1.80225696
C       -1.84278966       1.46144423       3.15686751
C       -2.61918209       2.20405088       4.03247939
C       -3.35048037       3.28962573       3.55392848
C       -3.32842303       3.67321558       2.19081607
C       -2.53820855       2.90494022       1.28954753
C       -2.52696656       3.28250654      -0.07447791
C       -3.25308723       4.37330752      -0.54450506
C       -4.01260105       5.12456896       0.33940308
C       -4.06763525       4.79317069       1.70408625
C       -4.88813369       5.65422256       2.58854770
C       -4.22968763       6.66921804       3.30427594
C       -4.93513102       7.52273126       4.13883341
C       -6.31482278       7.38008985       4.26323924
C       -7.03291639       6.38157551       3.56273941
C       -6.30210531       5.50050763       2.71593302
C       -7.01622196       4.49352970       2.02354490
C       -8.39798635       4.35123546       2.13737211
C       -9.11089582       5.21340763       2.95486449
C       -8.44026834       6.21516448       3.66250370
H       -1.27303097       0.61717670       3.53603148
H       -2.65919558       1.94308610       5.08594848
H       -3.95184319       3.84451003       4.27314109
H       -1.94184342       2.72526108      -0.80274739
H       -3.22077302       4.63683773      -1.59850472
H       -4.57159179       5.98028898      -0.03583686
H       -3.15232896       6.79218066       3.20753177
H       -4.41536590       8.30157098       4.68986951
H       -6.82692159       8.07477873       4.92527744
H       -6.49219257       3.79237860       1.37454852
H       -8.91161815       3.56752365       1.58673070
H      -10.18850829       5.09893974       3.03812990
C       -9.26488104       7.05939680       4.48766168
C       -9.95549417       7.76644136       5.17873150
Br     -11.07215719       8.90967262       6.29613294
C        1.80225696      -1.80225696       1.80225696
C        2.47482256      -2.83799126       1.14828759
C        3.29563866      -3.69119030       1.86888341
C        3.44713459      -3.50516403       3.24173596
C        2.79095140      -2.46198383       3.93951946
C        1.94052625      -1.59109306       3.20107699
C        1.27614493      -0.55659259       3.90225768
C        1.43855278      -0.37097251       5.27236438
C        2.27629269      -1.21541366       5.98486674
C        2.95701999      -2.26441916       5.34345303
C        3.84733538      -3.11365623       6.16991233
C        5.21877231      -2.80525822       6.17915109
C        6.10888558      -3.54664516       6.94116496
C        5.63849287      -4.60446444       7.71519456
C        4.26830716      -4.95755326       7.75137090
C        3.36020622      -4.20019400       6.95814575
C        1.99121143      -4.55878720       6.98329794
C        1.51324123      -5.61089658       7.76245611
C        2.39510694      -6.34314635       8.54091465
C        3.75641692      -6.02562277       8.53589683
H        2.36204161      -2.98659864       0.07759891
H        3.81855386      -4.50102351       1.36865279
H        4.09706833      -4.19987141       3.77255458
H        0.61314634       0.13238680       3.38359756
H        0.91440928       0.43488708       5.77958383
H        2.40286788      -1.05833807       7.05483795
H        5.59400568      -1.97564537       5.58239033
H        7.16730707      -3.30144702       6.93805231
H        6.37207496      -5.15475883       8.30014397
H        1.26610970      -4.01123679       6.38177319
H        0.45391088      -5.85385354       7.75810808
H        2.01633382      -7.16119437       9.14804974
C        4.59435745      -6.84405654       9.37352553
C        5.29613264      -7.52949482      10.07503957
Br       6.43084378      -8.63779054      11.20932844
C       -0.00445707       0.01189536      -1.78238275
H       -0.66409135       0.67374010      -2.43557963
H        0.65740317      -0.63156657      -2.45157240
C       -0.90989263      -0.90692880      -0.91072765
C        0.90977584       0.90977584      -0.90977584
C       -0.00465871       1.77757030       0.00794375
H       -0.66225468       2.44313916      -0.64384735
H        0.64322798       2.43503045       0.67728295
C       -1.78241447       0.00034974      -0.00472694
H       -2.45427497      -0.65498947       0.64260836
H       -2.43311707       0.67328779      -0.65473579
C       -0.91132561       0.90220522       0.91563759
C       -0.01476271      -0.02253852       1.78660255
H       -0.67934791      -0.69751639       2.42135241
H        0.63392994       0.61504881       2.47327442
C        0.01484550      -1.77751727      -0.01636693
H        0.67870853      -2.42144646      -0.68295456
H       -0.62264859      -2.45592969       0.64226336
C        1.78714474       0.01002794       0.00389507
H        2.44202412       0.67113390       0.66197326
H        2.45385902      -0.65136977      -0.64189061
C        0.91606151      -0.90478549       0.90901405
