154
Properties=species:S:1:pos:R:3 pbc="F F F"
C        1.80225696       1.80225696      -1.80225696
C        1.89558989       1.42185601      -3.14365550
C        2.67612077       2.16147832      -4.01811327
C        3.35871016       3.28349833      -3.55182609
C        3.28226780       3.70747340      -2.20271348
C        2.48790394       2.94255350      -1.30223887
C        2.42242112       3.36087769       0.04830361
C        3.09994621       4.48769734       0.50575387
C        3.86361162       5.23518467      -0.37777679
C        3.97146183       4.86433769      -1.72909267
C        4.79273303       5.72340618      -2.61476473
C        4.12649965       6.69502550      -3.38165647
C        4.83148993       7.54447194      -4.22073382
C        6.21810289       7.44144792      -4.29860107
C        6.94390335       6.48770143      -3.54562654
C        6.21402324       5.61030356      -2.69421917
C        6.93636222       4.64773023      -1.94920413
C        8.32470355       4.54543966      -2.01645071
C        9.03635441       5.40428974      -2.83852379
C        8.35810007       6.36254701      -3.59728944
Br       9.45026869       7.48144049      -4.69176344
H        1.36393292       0.54900019      -3.51330604
H        2.75706434       1.86998850      -5.06117732
H        3.96518154       3.83484399      -4.26946879
H        1.83196170       2.80795772       0.77556232
H        3.02659996       4.78200770       1.54950164
H        4.38428577       6.11902511      -0.01273303
H        3.04339697       6.78702890      -3.32161552
H        4.30582070       8.28951669      -4.81146900
H        6.72935210       8.13140393      -4.96622174
H        6.41379925       3.95054753      -1.29477291
H        8.84440581       3.79532314      -1.42614355
H       10.11902972       5.32119072      -2.88535750
C       -1.80225696      -1.80225696      -1.80225696
C       -2.46469981      -2.84588808      -1.15051351
C       -3.28472164      -3.69968355      -1.87130717
C       -3.44555649      -3.50638670      -3.24209140
C       -2.79980268      -2.45514695      -3.93750505
C       -1.95017129      -1.58358919      -3.19893582
C       -1.29618826      -0.54095945      -3.89784749
C       -1.46791575      -0.34815059      -5.26582334
C       -2.30486445      -1.19333826      -5.97837037
C       -2.97546489      -2.25021421      -5.33921308
C       -3.86564218      -3.09983350      -6.16542826
C       -5.23892439      -2.79961804      -6.16463920
C       -6.12915606      -3.54177413      -6.92576551
C       -5.65711570      -4.59211854      -7.70891763
C       -4.28509062      -4.93675992      -7.75538077
C       -3.37677993      -4.17871029      -6.96305575
C       -2.00584677      -4.52892874      -6.99852106
C       -1.52629399      -5.57348743      -7.78681250
C       -2.40843154      -6.30635914      -8.56437726
C       -3.77155604      -5.99704270      -8.54933778
Br      -4.88230891      -7.08179313      -9.65937059
H       -2.34461422      -3.00019788      -0.08142705
H       -3.79978865      -4.51560727      -1.37283424
H       -4.09450873      -4.20180273      -3.77318285
H       -0.63421041       0.14887967      -3.37902636
H       -0.95163871       0.46384869      -5.77131601
H       -2.43878998      -1.03064758      -7.04660635
H       -5.61551143      -1.97584406      -5.56068590
H       -7.18898308      -3.30295229      -6.91487103
H       -6.39089911      -5.14330576      -8.29277290
H       -1.28042763      -3.98063512      -6.39805694
H       -0.46552676      -5.81010720      -7.79023854
H       -2.02843606      -7.11848562      -9.17865625
C       -1.80225696       1.80225696       1.80225696
C       -1.89773486       1.42030334       3.14306320
C       -2.67843372       2.15980881       4.01746984
C       -3.35904443       3.28325809       3.55173206
C       -3.28039323       3.70881641       2.20324504
C       -2.48586048       2.94402854       1.30280729
C       -2.41817405       3.36395143      -0.04713027
C       -3.09372552       4.49218302      -0.50401886
C       -3.85756044       5.23952119       0.37949146
C       -3.96755607       4.86712727       1.73020885
C       -4.78886048       5.72611555       2.61592791
C       -4.12237451       6.69594859       3.38485852
C       -4.82735209       7.54522791       4.22411569
C       -6.21418816       7.44383513       4.30012858
C       -6.94023622       6.49193180       3.54506329
C       -6.21038827       5.61468543       2.69347227
C       -6.93299576       4.65394105       1.94635976
C       -8.32154606       4.55329709       2.01175077
C       -9.03315131       5.41200951       2.83400712
C       -8.35465091       6.36847565       3.59480996
Br      -9.44678914       7.48736622       4.68931727
H       -1.36762578       0.54632624       3.51228714
H       -2.76103982       1.86712206       5.06006827
H       -3.96572297       3.83446546       4.26930589
H       -1.82749743       2.81120167      -0.77434199
H       -3.01871235       4.78770063      -1.54730695
H       -4.37667879       6.12446347       0.01490165
H       -3.03908417       6.78667681       3.32628041
H       -4.30149253       8.28888116       4.81643271
H       -6.72540981       8.13359624       4.96797171
H       -6.41048579       3.95692275       1.29171114
H       -8.84144551       3.80456412       1.41986288
H      -10.11598674       5.33020155       2.87938964
C        1.80225696      -1.80225696       1.80225696
C        2.48945167      -2.82640057       1.14524916
C        3.31141612      -3.67872355       1.86557269
C        3.44941541      -3.50336921       3.24124996
C        2.77815834      -2.47202061       3.94227574
C        1.92658708      -1.60210753       3.20400170
C        1.24717879      -0.57953847       3.90827793
C        1.39611645      -0.40447206       5.28130118
C        2.23499702      -1.24782101       5.99375506
C        2.93036001      -2.28527374       5.34925844
C        3.82086914      -3.13395728       6.17607753
C        5.18943463      -2.81381160       6.19993538
C        6.07935844      -3.55409312       6.96324414
C        5.61153326      -4.62264482       7.72397379
C        4.24421601      -4.98786300       7.74515231
C        3.33643636      -4.23149375       6.95061586
C        1.97045319      -4.60210951       6.96073388
C        1.49495698      -5.66506193       7.72657500
C        2.37641211      -6.39642158       8.50633425
C        3.73489506      -6.06711428       8.51592719
Br       4.84527444      -7.15185966       9.62633852
H        2.38722710      -2.96663823       0.07237383
H        3.84567399      -4.47961645       1.36293972
H        4.10076878      -4.19703490       3.77169064
H        0.58270641       0.10818077       3.38983146
H        0.86060461       0.39237598       5.79087741
H        2.35094719      -1.09899032       7.06610640
H        5.56256502      -1.97581671       5.61365966
H        7.13558972      -3.29973985       6.97147683
H        6.34480207      -5.17165740       8.31051829
H        1.24583126      -4.05562294       6.35766550
H        0.43786186      -5.91711701       7.71089364
H        1.99955177      -7.22297355       9.10305261
C       -0.00445707       0.01189536      -1.78238275
H       -0.66409135       0.67374010      -2.43557963
H        0.65740317      -0.63156657      -2.45157240
C       -0.90989263      -0.90692880      -0.91072765
C        0.90977584       0.90977584      -0.90977584
C       -0.00465871       1.77757030       0.00794375
H       -0.66225468       2.44313916      -0.64384735
H        0.64322798       2.43503045       0.67728295
C       -1.78241447       0.00034974      -0.00472694
H       -2.45427497      -0.65498947       0.64260836
H       -2.43311707       0.67328779      -0.65473579
C       -0.91132561       0.90220522       0.91563759
C       -0.01476271      -0.02253852       1.78660255
H       -0.67934791      -0.69751639       2.42135241
H        0.63392994       0.61504881       2.47327442
C        0.01484550      -1.77751727      -0.01636693
H        0.67870853      -2.42144646      -0.68295456
H       -0.62264859      -2.45592969       0.64226336
C        1.78714474       0.01002794       0.00389507
H        2.44202412       0.67113390       0.66197326
H        2.45385902      -0.65136977      -0.64189061
C        0.91606151      -0.90478549       0.90901405
