157
Properties=species:S:1:pos:R:3 pbc="F F F"
C        0.00000000       0.00000000       0.00000000
C        0.89200430       0.89200430      -0.89200430
C        0.55770271       0.92647287      -2.24936797
C        1.29870986       1.70482883      -3.12465314
C        2.36746470       2.45587827      -2.64123712
C        2.73208757       2.44936649      -1.27282643
C        1.98328465       1.64108046      -0.37503624
C        2.36681857       1.63219208       0.98901430
C        3.44169169       2.38557164       1.46077369
C        4.16168311       3.18217920       0.58301046
C        3.81258476       3.22339875      -0.77025691
C        4.56275528       4.10431911      -1.62110214
C        5.14190458       4.86722735      -2.34479984
C        5.83013573       5.86621042      -3.27627068
C        6.35789392       6.67682977      -3.98727421
C        6.99061677       7.66735583      -4.81332824
C        6.56858493       7.76172823      -6.14319030
C        7.14001051       8.70192837      -6.98779574
C        8.13582993       9.55086507      -6.50515662
C        8.59168155       9.48975412      -5.16491585
C        8.00186056       8.52529072      -4.30305329
C        8.44686273       8.45690554      -2.96048132
C        9.43909381       9.30078419      -2.46703449
C       10.01758319      10.24086839      -3.30530810
C        9.60248210      10.33765135      -4.63708276
H       -0.27978176       0.34828133      -2.63148208
H        1.04789323       1.73296395      -4.18182321
H        2.92503070       3.05543528      -3.35909170
H        1.82635374       1.02946865       1.71572494
H        3.70800753       2.35326342       2.51423850
H        4.99126209       3.77707190       0.95873627
H        5.79128484       7.10329069      -6.52471383
H        6.81396988       8.77852481      -8.02208569
H        8.55525892      10.27181342      -7.20359774
H        8.01635669       7.73177340      -2.27170536
H        9.75598513       9.22031411      -1.43048377
H       10.79190141      10.89603393      -2.91431287
C       10.26118986      11.34365375      -5.42933477
C       10.81285761      12.18618077      -6.09284584
Br      11.70485770      13.54847569      -7.16568710
C       -0.89200430      -0.89200430      -0.89200430
C       -2.23012894      -1.00214465      -0.50126997
C       -3.10642103      -1.77654015      -1.24523065
C       -2.64713795      -2.43266887      -2.38477327
C       -1.30052414      -2.34042466      -2.81333168
C       -0.39595616      -1.55879734      -2.04464785
C        0.95181538      -1.48587972      -2.47593202
C        1.40107203      -2.15075055      -3.61681113
C        0.51185660      -2.90231381      -4.37039464
C       -0.82807834      -2.99597303      -3.98218905
C       -1.71191320      -3.74713716      -4.82912617
C       -2.48173142      -4.32864220      -5.54355814
C       -3.49129199      -5.02047943      -6.46084541
C       -4.27642049      -5.53954730      -7.20603012
C       -5.19930635      -6.14921027      -8.12278423
C       -6.55144214      -6.15597465      -7.76608666
C       -7.48995246      -6.72682414      -8.61295803
C       -7.07915843      -7.29317664      -9.81951656
C       -5.71999416      -7.30649641     -10.21986096
C       -4.76229503      -6.71898149      -9.34892805
C       -3.40124177      -6.72328774      -9.73972009
C       -2.97975479      -7.28413084     -10.94302687
C       -3.91074926      -7.85952136     -11.79348906
C       -5.26377982      -7.87269973     -11.44073667
H       -2.59631148      -0.48661583       0.38294566
H       -4.14677694      -1.87080945      -0.94509400
H       -3.36538115      -3.03069733      -2.94347920
H        1.68320271      -0.90155084      -1.92174933
H        2.44295369      -2.07288299      -3.91710316
H        0.86507120      -3.40866442      -5.26600450
H       -6.87782490      -5.71441913      -6.82704532
H       -8.54205655      -6.73335321      -8.33917062
H       -7.84993946      -7.72959456     -10.45113606
H       -2.64063404      -6.28068738      -9.09851404
H       -1.92649558      -7.26937926     -11.21090816
H       -3.57532142      -8.29612686     -12.73079993
C       -6.15433562      -8.49204947     -12.38779330
C       -6.90017610      -9.01075488     -13.18095322
Br      -8.10613708      -9.84945766     -14.46342574
C       -0.89200430       0.89200430       0.89200430
C       -1.04068975       2.21828544       0.47456837
C       -1.82807622       3.09058587       1.20952974
C       -2.47423606       2.63436587       2.35597816
C       -2.35068500       1.29737152       2.80622398
C       -1.53245873       0.40404905       2.06289357
C       -1.40562847      -0.92715710       2.53152499
C       -2.05451437      -1.37150216       3.68347744
C       -2.86158820      -0.49934311       4.39860675
C       -3.01766242       0.82141398       3.96716402
C       -3.90490059       1.66343825       4.71983769
C       -4.67689742       2.37472528       5.30230906
C       -5.69116763       3.28521395       5.99623525
C       -6.51308874       3.97728668       6.53162249
C       -7.51527694       4.77956384       7.17646006
C       -7.72733996       6.06861884       6.67754465
C       -8.68462179       6.88839259       7.25672025
C       -9.43296376       6.42167982       8.33720804
C       -9.25113803       5.12247666       8.87273684
C       -8.26969675       4.28581675       8.27469107
C       -8.08116435       2.98401577       8.79906947
C       -8.82396038       2.50662128       9.87633083
C       -9.78024060       3.32058223      10.46293685
C       -9.99439046       4.61186158       9.97096418
H       -0.54487132       2.57841169      -0.42330136
H       -1.94455046       4.12411901       0.89401092
H       -3.08458427       3.34882366       2.90614975
H       -0.79042565      -1.64905799       1.99872980
H       -1.93314610      -2.40001764       4.01390399
H       -3.37497816      -0.85472064       5.28934019
H       -7.14773263       6.43741990       5.83413683
H       -8.85259669       7.89089026       6.87109343
H      -10.17168957       7.09957266       8.75940785
H       -7.33964476       2.31525503       8.36493567
H       -8.65256030       1.50149446      10.25272825
H      -10.35613279       2.94235667      11.30375875
C      -11.00800723       5.38127349      10.64489767
C      -11.85691127       6.02565597      11.20931697
Br     -13.22951732       7.06756793      12.12193524
C        0.89200430      -0.89200430       0.89200430
C        1.46379069      -2.00391854       0.26583433
C        2.28405831      -2.85773290       0.98640062
C        2.54020826      -2.59444276       2.32992908
C        1.98263059      -1.47584622       2.99580368
C        1.12949161      -0.60631954       2.26359020
C        0.56657212       0.50134700       2.94477124
C        0.82726810       0.75255461       4.29177616
C        1.67012723      -0.09192508       4.99879953
C        2.25030629      -1.19346125       4.36247288
C        3.15325446      -2.00292067       5.13200140
C        3.94815330      -2.66817415       5.73760431
C        5.00082880      -3.50092096       6.47086706
C        5.84743925      -4.12555086       7.04900779
C        6.87050818      -4.84586436       7.75492830
C        7.50902931      -5.88843408       7.07604006
C        8.50772283      -6.61729727       7.70471453
C        8.87102209      -6.30600101       9.01482852
C        8.25089382      -5.25723156       9.73822614
C        7.22885786      -4.51245137       9.08889535
C        6.60400386      -3.45969186       9.80055388
C        6.95994250      -3.13860977      11.10836022
C        7.95465475      -3.86413310      11.74497182
C        8.59430585      -4.91018681      11.07272355
H        1.27357684      -2.21069403      -0.78428922
H        2.72820980      -3.72664363       0.50782697
H        3.19003257      -3.28730555       2.86221955
H       -0.09332745       1.19570407       2.42912897
H        0.37676121       1.61183989       4.78211114
H        1.87961718       0.11582532       6.04580585
H        7.23089541      -6.13473889       6.05365505
H        9.00669488      -7.42810020       7.17978531
H        9.65858246      -6.90471933       9.46736830
H        5.81863111      -2.86704546       9.33415888
H        6.45893968      -2.32361773      11.62422560
H        8.22735247      -3.60902144      12.76587429
C        9.61363037      -5.60475164      11.81579638
C       10.46731465      -6.18644969      12.43811988
Br      11.84764993      -7.12700623      13.44436433
