178
Properties=species:S:1:pos:R:3 pbc="F F F"
C        1.80190832       1.80190832      -1.80190832
C        1.46760674       1.83637690      -3.15927200
C        2.20861389       2.61473285      -4.03455717
C        3.27736872       3.36578230      -3.55114114
C        3.64199159       3.35927052      -2.18273045
C        2.89318868       2.55098448      -1.28494026
C        3.27672260       2.54209610       0.07911027
C        4.35159571       3.29547567       0.55086966
C        5.07158713       4.09208322      -0.32689356
C        4.72248879       4.13330277      -1.68016093
C        5.47265931       5.01422313      -2.53100616
C        6.05180860       5.77713137      -3.25470386
C        6.74003975       6.77611444      -4.18617471
C        7.26779795       7.58673379      -4.89717824
C        7.90052079       8.57725985      -5.72323227
C        7.47848895       8.67163225      -7.05309432
C        8.04991453       9.61183240      -7.89769977
C        9.04573396      10.46076909      -7.41506064
C        9.50158558      10.39965814      -6.07481988
C        8.91176458       9.43519474      -5.21295732
C        9.35676675       9.36680957      -3.87038535
C       10.34899783      10.21068822      -3.37693852
C       10.92748721      11.15077241      -4.21521212
C       10.51238613      11.24755537      -5.54698679
H        0.63012226       1.25818535      -3.54138610
H        1.95779726       2.64286797      -5.09172724
H        3.83493472       3.96533931      -4.26899572
H        2.73625777       1.93937268       0.80582092
H        4.61791155       3.26316745       1.60433447
H        5.90116612       4.68697592       0.04883225
H        6.70118887       8.01319471      -7.43461785
H        7.72387391       9.68842884      -8.93198971
H        9.46516294      11.18171745      -8.11350177
H        8.92626072       8.64167742      -3.18160939
H       10.66588915      10.13021813      -2.34038779
H       11.70180544      11.80593796      -3.82421689
C       11.17109388      12.25355778      -6.33923880
C       11.72276163      13.09608479      -7.00274986
Br      12.61476172      14.45837972      -8.07559113
C       -1.80190832      -1.80190832      -1.80190832
C       -2.72932213      -2.60413030      -1.12980320
C       -3.57648178      -3.43270947      -1.84871265
C       -3.50291180      -3.45190452      -3.23947583
C       -2.57990934      -2.65003563      -3.95404759
C       -1.69991765      -1.80996715      -3.21922862
C       -0.77151159      -1.02315660      -3.94504023
C       -0.70447843      -1.05382414      -5.33789915
C       -1.57351922      -1.86600719      -6.05103751
C       -2.50839611      -2.65433876      -5.37321762
C       -3.41450731      -3.43657170      -6.16680958
C       -4.21460464      -4.06305456      -6.80598463
C       -5.27577472      -4.83043614      -7.59611803
C       -6.12071820      -5.40188144      -8.22911034
C       -7.13220532      -6.06128311      -9.00752448
C       -8.11676203      -6.77226078      -8.31419271
C       -9.12172444      -7.42611452      -9.01160774
C       -9.14519636      -7.37129822     -10.40506912
C       -8.16823926      -6.66147843     -11.14634590
C       -7.14118557      -5.99199373     -10.42673734
C       -6.16100920      -5.27648555     -11.15646692
C       -6.17558560      -5.21319664     -12.54784232
C       -7.17445540      -5.86650722     -13.25250913
C       -8.15965402      -6.58216453     -12.56510974
H       -2.79658333      -2.58816569      -0.04494470
H       -4.29662488      -4.06266732      -1.33310026
H       -4.18526623      -4.11485349      -3.76915003
H       -0.07604213      -0.36464639      -3.42912101
H        0.02167009      -0.43703336      -5.86138126
H       -1.52498345      -1.87664276      -7.13768358
H       -8.10436864      -6.81723330      -7.22739949
H       -9.88911656      -7.97930539      -8.47587051
H       -9.95158917      -7.89947927     -10.90931372
H       -5.36077213      -4.75038741     -10.63838799
H       -5.40698644      -4.65425048     -13.07525816
H       -7.17986224      -5.81382502     -14.33827302
C       -9.15441044      -7.22655861     -13.38292141
C       -9.98751894      -7.76623866     -14.06783869
Br     -11.33458493      -8.63885565     -15.17529199
C       -1.80190832       1.80190832       1.80190832
C       -2.65638224       2.67952950       1.12734389
C       -3.49809467       3.51417403       1.84563521
C       -3.49232578       3.46439302       3.23757335
C       -2.64432900       2.58534738       3.95431618
C       -1.76961622       1.73836940       3.22112779
C       -0.91607514       0.87355312       3.95008016
C       -0.91639246       0.83544171       5.34436755
C       -1.78042082       1.65507735       6.05506575
C       -2.64271116       2.51947644       5.37376489
C       -3.54909479       3.30728027       6.16151354
C       -4.34941489       3.94172224       6.79250671
C       -5.41102472       4.72251230       7.56879187
C       -6.25836671       5.30454453       8.18879874
C       -7.27490176       5.97570722       8.95040394
C       -8.18962464       6.76610825       8.24748263
C       -9.19591928       7.43521785       8.92830957
C       -9.29057555       7.31625232      10.31473583
C       -8.38574283       6.52512961      11.06519115
C       -7.35704852       5.84037887      10.36248925
C       -6.44870210       5.04396455      11.10129502
C       -6.53477854       4.91620568      12.48564035
C       -7.53537755       5.58413263      13.17396157
C       -8.45081344       6.37895550      12.47715934
H       -2.67077917       2.71785816       0.04105639
H       -4.16157902       4.20236859       1.32844485
H       -4.16806790       4.13455642       3.76664543
H       -0.22771777       0.20652603       3.43556573
H       -0.24668612       0.15971820       5.87034020
H       -1.78504421       1.61227080       7.14199478
H       -8.12159496       6.86139846       7.16600801
H       -9.90915616       8.05009673       8.38503957
H      -10.09514361       7.85926663      10.80597191
H       -5.64949599       4.50398127      10.59607027
H       -5.82019763       4.29591611      13.02038134
H       -7.59674820       5.48085468      14.25435741
C       -9.45330268       7.03247099      13.27811680
C      -10.29288741       7.57979021      13.94891866
Br     -11.65042491       8.46475910      15.03354855
C        1.80190832      -1.80190832       1.80190832
C        1.62090481      -1.66103199       3.18131883
C        2.37326326      -2.42537661       4.05926404
C        3.29927181      -3.33707393       3.55794641
C        3.50617490      -3.51011828       2.16769938
C        2.74660209      -2.71758642       1.26492491
C        2.97292984      -2.88997124      -0.12319265
C        3.90606380      -3.80348221      -0.61334429
C        4.63608203      -4.58324961       0.27123228
C        4.43930802      -4.44779362       1.64885085
C        5.18759734      -5.31702453       2.51326673
C        5.76444726      -6.06319489       3.25600169
C        6.44865434      -7.03399454       4.21968002
C        6.96844991      -7.82281978       4.96044028
C        7.58676690      -8.78966773       5.82457828
C        7.30988732      -8.70090182       7.19242638
C        7.87479374      -9.60922154       8.07543142
C        8.71889497     -10.60938167       7.59328705
C        9.02467107     -10.73588567       6.21550686
C        8.44209096      -9.80325521       5.31457047
C        8.73761575      -9.92158224       3.93476368
C        9.57746389     -10.91743142       3.44172925
C       10.14865102     -11.82707279       4.31774795
C        9.87859398     -11.74127708       5.68705723
H        0.89460441      -0.95650205       3.57858726
H        2.24160087      -2.31800720       5.13278439
H        3.87065015      -3.91993541       4.27868420
H        2.41777800      -2.30680229      -0.85477076
H        4.05388624      -3.90809813      -1.68523985
H        5.35359868      -5.30275138      -0.11704027
H        6.65112699      -7.92389150       7.57398294
H        7.66129535      -9.54359359       9.13940351
H        9.13926403     -11.29863504       8.32248308
H        8.30780942      -9.22596776       3.21577035
H        9.78205551     -10.97842821       2.37601136
H       10.80372763     -12.60147083       3.92676182
C       10.51722268     -12.72976932       6.51689847
C       11.05207422     -13.55763157       7.21189050
Br      11.91688391     -14.89621480       8.33563384
C       -0.00445707       0.01189536      -1.78238275
H       -0.66409135       0.67374010      -2.43557963
H        0.65740317      -0.63156657      -2.45157240
C       -0.90989263      -0.90692880      -0.91072765
C        0.90977584       0.90977584      -0.90977584
C       -0.00465871       1.77757030       0.00794375
H       -0.66225468       2.44313916      -0.64384735
H        0.64322798       2.43503045       0.67728295
C       -1.78241447       0.00034974      -0.00472694
H       -2.45427497      -0.65498947       0.64260836
H       -2.43311707       0.67328779      -0.65473579
C       -0.91132561       0.90220522       0.91563759
C       -0.01476271      -0.02253852       1.78660255
H       -0.67934791      -0.69751639       2.42135241
H        0.63392994       0.61504881       2.47327442
C        0.01484550      -1.77751727      -0.01636693
H        0.67870853      -2.42144646      -0.68295456
H       -0.62264859      -2.45592969       0.64226336
C        1.78714474       0.01002794       0.00389507
H        2.44202412       0.67113390       0.66197326
H        2.45385902      -0.65136977      -0.64189061
C        0.91606151      -0.90478549       0.90901405
