141
Properties=species:S:1:pos:R:3 pbc="F F F"
C        0.00000000       0.00000000       0.00000000
C        0.91514458       0.91514458      -0.91514458
C        1.80155190       1.79429447      -0.04901481
C        2.59862723       2.82183460      -0.84365652
C        3.40391510       2.30674378      -2.02856971
C        4.56648425       1.40736129      -1.60795719
C        5.33661296       0.82172676      -2.78617622
C        6.40232020       1.72343000      -3.40130787
C        5.88427098       2.60244477      -4.52851209
C        5.68855831      -0.65499963      -2.68100913
C        4.64978107      -0.21124242      -3.66298516
C        2.02205392       4.21999183      -0.95357949
C        3.19910626       3.96981383      -0.05698345
H        0.24410731       1.50093432      -1.55041182
H        1.49535646       0.22960963      -1.53799376
H        2.49567267       1.17245090       0.53173144
H        1.18051467       2.31411563       0.69457438
H        3.79526155       3.16124139      -2.58707187
H        2.74101879       1.78144576      -2.72651489
H        4.17955612       0.59072029      -0.98567085
H        5.25587702       1.96524681      -0.96253368
H        7.22506861       1.10539699      -3.78552146
H        6.84973238       2.34464926      -2.61495695
H        5.15192486       3.33722344      -4.19385218
H        5.45829640       2.02136455      -5.35067303
H        5.35763039      -1.21837821      -1.81443790
H        6.63785792      -1.00450053      -3.07310353
H        4.90424934      -0.26922214      -4.71570329
H        3.61852292      -0.47564294      -3.45483785
H        1.06846382       4.43749256      -0.48317612
H        2.19250594       4.79183463      -1.85896822
H        4.16245518       4.36588233      -0.36149248
H        3.03948748       4.00725380       1.01562280
C        6.96974276       3.36398553      -5.09012287
C        7.87882538       4.00177593      -5.56047190
Br       9.34873508       5.03302905      -6.32098650
C       -0.91514458      -0.91514458      -0.91514458
C       -0.65378929      -0.61044036      -2.38063152
C       -1.60623096      -1.32908497      -3.32880242
C       -1.75985385      -2.83275865      -3.14661609
C       -0.48578914      -3.60402021      -3.49199337
C       -0.59871684      -5.10370767      -3.24209143
C       -1.25891461      -5.91719339      -4.35095008
C       -2.76516793      -6.05421447      -4.19584543
C        0.59279748      -5.75352049      -2.55384481
C       -0.69579715      -5.59706769      -1.80865897
C       -2.82216762      -0.56220563      -3.81125198
C       -1.67501919      -0.80248729      -4.74839707
H       -1.95187757      -0.71505976      -0.62851612
H       -0.66114930      -1.94604435      -0.65576619
H        0.37963424      -0.87471860      -2.64130777
H       -0.72979461       0.47410565      -2.54436697
H       -2.57562118      -3.18365627      -3.78429736
H       -2.07806350      -3.05079800      -2.12011793
H        0.34726190      -3.19995391      -2.90325524
H       -0.21519504      -3.42817217      -4.54029030
H       -0.81448239      -6.92124559      -4.38025907
H       -1.02016417      -5.46647740      -5.32269702
H       -3.29130588      -5.10396986      -4.28772475
H       -3.04746438      -6.52992621      -3.25294340
H        1.43132127      -5.13523865      -2.24977269
H        0.89136965      -6.75600862      -2.84182196
H       -1.25801365      -6.49925144      -1.59346540
H       -0.72353773      -4.87091348      -1.00326662
H       -2.98120822       0.45243859      -3.46036288
H       -3.74522684      -1.09945821      -3.99862374
H       -1.82240753      -1.50612163      -5.56130083
H       -1.05424893       0.04454774      -5.02141728
C       -3.28842623      -6.89083074      -5.24459419
C       -3.72665505      -7.59149687      -6.12292128
Br      -4.43523399      -8.72441474      -7.54310190
C       -0.91514458       0.91514458       0.91514458
C       -1.64776974       1.93613627       0.06095516
C       -2.42598486       2.96221904       0.87591445
C       -3.37153717       2.42589208       1.94179934
C       -4.56147741       1.66939810       1.35092721
C       -5.47724065       1.06047845       2.40679684
C       -6.51652849       1.99981290       3.01071668
C       -6.03036867       2.73568974       4.24916943
C       -5.93687143      -0.36613898       2.14383537
C       -4.95614384      -0.09651317       3.24189313
C       -1.75011407       4.29066051       1.15485065
C       -2.85998318       4.21849644       0.14742392
H       -0.25748688       1.38622580       1.65174077
H       -1.60151785       0.23524549       1.42619650
H       -2.33606459       1.42688225      -0.62655471
H       -0.92363612       2.45768354      -0.58126374
H       -3.74013582       3.26354142       2.53989757
H       -2.81737587       1.78950697       2.64209660
H       -4.18858423       0.87488330       0.69247972
H       -5.14393475       2.33622142       0.70350134
H       -7.41721629       1.42760157       3.27116920
H       -6.84120476       2.71960268       2.24853115
H       -5.21435377       3.42776251       4.04088420
H       -5.72688293       2.05474195       5.04870911
H       -5.57756877      -0.88451261       1.26063392
H       -6.94217051      -0.66123625       2.42552666
H       -5.30620336      -0.21683287       4.26136000
H       -3.93534512      -0.43301225       3.09538496
H       -0.74433711       4.46066281       0.78413259
H       -1.95282710       4.80016180       2.09031989
H       -3.81119533       4.67194055       0.40669410
H       -2.60400230       4.32838755      -0.90127137
C       -7.09590479       3.54193885       4.78600752
C       -7.98829130       4.21717247       5.23560943
Br      -9.43120480       5.30896814       5.96257769
C        0.91514458      -0.91514458       0.91514458
C        1.03130069      -0.30964584       2.30391464
C        2.02378123      -1.03816801       3.20216912
C        1.86898276      -2.54794702       3.32229880
C        0.58355381      -2.95566722       4.04258169
C        0.37584170      -4.46475969       4.10391455
C        1.10529891      -5.19366876       5.22809040
C        2.49550743      -5.67517299       4.84454741
C       -1.03040569      -4.95451487       3.79045863
C        0.07564549      -5.21074215       2.81513617
C        3.42991847      -0.47719828       3.28850847
C        2.48622692      -0.29820148       4.44147514
H        1.88504245      -0.99516618       0.41524482
H        0.43492385      -1.89681390       0.93122209
H        0.04777904      -0.29656592       2.79204716
H        1.32939053       0.74494972       2.21561512
H        2.72803134      -2.94819213       3.86735134
H        1.91668044      -3.00544746       2.32685153
H       -0.27230570      -2.49205388       3.53619907
H        0.57889145      -2.54509218       5.05967389
H        0.50862197      -6.05817539       5.54918969
H        1.16298651      -4.53918952       6.10716256
H        3.18723478      -4.85864725       4.63711845
H        2.48146603      -6.35794751       3.99092045
H       -1.79302043      -4.23401414       3.51269636
H       -1.43123326      -5.80345379       4.33424039
H        0.41177661      -6.23582790       2.70312599
H        0.05697339      -4.65996460       1.88077983
H        3.68531556       0.40229185       2.70610880
H        4.26296223      -1.15838488       3.42196168
H        2.67874322      -0.86353828       5.34754850
H        2.09655563       0.69656157       4.63112441
C        3.07644420      -6.40750403       5.93990293
C        3.56297875      -7.02083127       6.85726318
Br       4.34966397      -8.01252955       8.34055711
