133
Properties=species:S:1:pos:R:3 pbc="F F F"
C        0.00000000       0.00000000       0.00000000
C        0.91514458       0.91514458      -0.91514458
C        1.80155190       1.79429447      -0.04901481
C        2.59862723       2.82183460      -0.84365652
C        3.40391510       2.30674378      -2.02856971
C        4.56648425       1.40736129      -1.60795719
C        5.33661296       0.82172676      -2.78617622
C        6.40232020       1.72343000      -3.40130787
C        5.88427098       2.60244477      -4.52851209
Br       7.35471280       3.63407121      -5.28930200
C        5.68855831      -0.65499963      -2.68100913
C        4.64978107      -0.21124242      -3.66298516
C        2.02205392       4.21999183      -0.95357949
C        3.19910626       3.96981383      -0.05698345
H        0.24410731       1.50093432      -1.55041182
H        1.49535646       0.22960963      -1.53799376
H        2.49567267       1.17245090       0.53173144
H        1.18051467       2.31411563       0.69457438
H        3.79526155       3.16124139      -2.58707187
H        2.74101879       1.78144576      -2.72651489
H        4.17955612       0.59072029      -0.98567085
H        5.25587702       1.96524681      -0.96253368
H        7.22506861       1.10539699      -3.78552146
H        6.84973238       2.34464926      -2.61495695
H        5.15192486       3.33722344      -4.19385218
H        5.45829640       2.02136455      -5.35067303
H        5.35763039      -1.21837821      -1.81443790
H        6.63785792      -1.00450053      -3.07310353
H        4.90424934      -0.26922214      -4.71570329
H        3.61852292      -0.47564294      -3.45483785
H        1.06846382       4.43749256      -0.48317612
H        2.19250594       4.79183463      -1.85896822
H        4.16245518       4.36588233      -0.36149248
H        3.03948748       4.00725380       1.01562280
C       -0.91514458      -0.91514458      -0.91514458
C       -0.80693556      -0.47306947      -2.36485615
C       -1.77764650      -1.19368164      -3.29279021
C       -1.79452711      -2.71473224      -3.22996923
C       -0.49777902      -3.34264958      -3.74137412
C       -0.46869557      -4.86161271      -3.61420767
C       -1.15556435      -5.63826213      -4.73323160
C       -2.62696596      -5.91726402      -4.47099785
Br      -3.36366581      -6.99088480      -5.92353538
C        0.82599319      -5.45848804      -3.08207296
C       -0.40151089      -5.47423507      -2.22577785
C       -3.08808137      -0.49907870      -3.60846516
C       -2.01099574      -0.56353435      -4.65137345
H       -1.93576814      -0.82917226      -0.53051305
H       -0.55824435      -1.93753149      -0.76718400
H        0.21776905      -0.62514438      -2.72901679
H       -0.98307072       0.61039415      -2.42737936
H       -2.63191892      -3.08306298      -3.82859292
H       -2.00415766      -3.04067561      -2.20414616
H        0.34829472      -2.91611997      -3.18812201
H       -0.33395856      -3.06099353      -4.78870542
H       -0.63671762      -6.59446478      -4.88480466
H       -1.03864410      -5.09251433      -5.67818016
H       -3.23316513      -5.01191535      -4.43792000
H       -2.78763678      -6.48930871      -3.55338849
H        1.63574715      -4.79606428      -2.79337295
H        1.17744778      -6.40515897      -3.47874973
H       -0.86923416      -6.43603193      -2.04546440
H       -0.41713614      -4.81974904      -1.36083265
H       -3.29649109       0.46674327      -3.15938467
H       -3.97812642      -1.09766896      -3.76751341
H       -2.17172714      -1.21023934      -5.50786351
H       -1.48574214       0.35318351      -4.89855984
C       -0.91514458       0.91514458       0.91514458
C       -1.49035891       2.05841744       0.09608483
C       -2.25229382       3.07996413       0.93186039
C       -3.32406938       2.54414110       1.87101811
C       -4.51504905       1.94007915       1.12667453
C       -5.56206637       1.33040221       2.05204736
C       -6.57218332       2.30448560       2.65038916
C       -6.13691271       2.89718046       3.98113466
Br      -7.54698436       4.04778628       4.68331536
C       -6.10794667      -0.02702125       1.63364240
C       -5.20598725       0.07150914       2.82402742
C       -1.50066397       4.32024379       1.37471747
C       -2.52314457       4.42173215       0.28102682
H       -0.28760729       1.26952831       1.73831785
H       -1.69356872       0.25811838       1.31127274
H       -2.15548733       1.66487753      -0.68397273
H       -0.67567689       2.56521101      -0.44083197
H       -3.67545335       3.36068478       2.50743668
H       -2.88294088       1.81011047       2.55592809
H       -4.15089471       1.17074024       0.43431230
H       -4.98639418       2.70260994       0.49465339
H       -7.53376284       1.79225355       2.78997066
H       -6.77357590       3.10670656       1.92905613
H       -5.25448947       3.53158277       3.89692823
H       -5.95670244       2.13241804       4.74121351
H       -5.71657788      -0.50332009       0.74043228
H       -7.15354985      -0.25676817       1.80967925
H       -5.64974926      -0.09806037       3.79904160
H       -4.20591519      -0.33800975       2.72981239
H       -0.45681328       4.43266163       1.09965759
H       -1.74162763       4.77033224       2.33134893
H       -3.45452370       4.93267315       0.50263314
H       -2.17116387       4.59122508      -0.73127048
C        0.91514458      -0.91514458       0.91514458
C        1.27737725      -0.17545093       2.19203299
C        2.28778588      -0.91863453       3.05769794
C        1.97881214      -2.37231866       3.38809779
C        0.75884329      -2.52639790       4.29656153
C        0.39025007      -3.97928794       4.57497793
C        1.17060137      -4.66325028       5.69320643
C        2.43588032      -5.36029807       5.21904944
Br       3.28923411      -6.26993572       6.71891617
C       -1.09120582      -4.31635540       4.48941824
C       -0.15640558      -4.82228499       3.43564440
C        3.74799600      -0.53726516       2.91036407
C        2.98721918      -0.10809271       4.13059165
H        1.79711156      -1.17581182       0.32253008
H        0.33234077      -1.81852466       1.11209441
H        0.37284990       0.01968557       2.78322779
H        1.67976675       0.81499892       1.93528810
H        2.84967806      -2.81515598       3.87874078
H        1.84550130      -2.94252257       2.46095556
H       -0.09668408      -2.01714234       3.83548899
H        0.93199175      -2.00549764       5.24616812
H        0.52569953      -5.40147564       6.18881188
H        1.41517584      -3.92582582       6.46833693
H        3.18359122      -4.66863375       4.83077551
H        2.23435646      -6.12831928       4.46765824
H       -1.79617791      -3.54000732       4.20986067
H       -1.51272424      -5.03910468       5.18008048
H        0.04354840      -5.88815250       3.41902959
H       -0.23239701      -4.38371788       2.44639695
H        4.02475549       0.22991071       2.19428772
H        4.50824202      -1.30038974       3.03467704
H        3.22916609      -0.58661105       5.07405285
H        2.74106700       0.94364083       4.23369230
