162
Properties=species:S:1:pos:R:3 pbc="F F F"
C        1.82504861       1.82504861      -1.82504861
C        2.71145592       2.70419849      -0.95891883
C        3.50853125       3.73173863      -1.75356054
C        4.31381912       3.21664780      -2.93847373
C        5.47638827       2.31726531      -2.51786121
C        6.24651699       1.73163079      -3.69608024
C        7.31222423       2.63333403      -4.31121190
C        6.79417500       3.51234879      -5.43841611
C        6.59846234       0.25490439      -3.59091316
C        5.55968510       0.69866160      -4.57288918
C        2.93195794       5.12989585      -1.86348351
C        4.10901029       4.87971785      -0.96688747
H        1.15401133       2.41083835      -2.46031585
H        2.40526048       1.13951365      -2.44789778
H        3.40557669       2.08235493      -0.37817258
H        2.09041869       3.22401966      -0.21532965
H        4.70516557       4.07114542      -3.49697590
H        3.65092281       2.69134979      -3.63641891
H        5.08946014       1.50062431      -1.89557487
H        6.16578104       2.87515083      -1.87243771
H        8.13497263       2.01530101      -4.69542548
H        7.75963640       3.25455328      -3.52486098
H        6.06182889       4.24712746      -5.10375620
H        6.36820043       2.93126857      -6.26057706
H        6.26753442      -0.30847419      -2.72434193
H        7.54776194      -0.09459650      -3.98300756
H        5.81415337       0.64068189      -5.62560731
H        4.52842694       0.43426109      -4.36474187
H        1.97836785       5.34739659      -1.39308014
H        3.10240997       5.70173865      -2.76887224
H        5.07235921       5.27578636      -1.27139650
H        3.94939151       4.91715782       0.10571878
C        7.87964678       4.27388956      -6.00002689
C        8.78872940       4.91167995      -6.47037592
Br      10.25863911       5.94293307      -7.23089052
C       -1.82504861      -1.82504861      -1.82504861
C       -2.97769162      -2.38697485      -1.00990677
C       -3.81688167      -3.40751481      -1.76943395
C       -4.32505919      -2.99876410      -3.14511736
C       -5.35585074      -1.87131252      -3.08435153
C       -5.81811446      -1.39818097      -4.45793259
C       -6.92290319      -2.22294103      -5.11092593
C       -6.40672690      -3.36019146      -5.97802153
C       -5.90862448       0.10929351      -4.64494892
C       -4.82987561      -0.65827956      -5.34308071
C       -3.49317997      -4.87381045      -1.55834688
C       -4.72829616      -4.28866186      -0.93865759
H       -1.18222917      -2.61167289      -2.23126347
H       -2.16949150      -1.18326154      -2.63991887
H       -3.62808386      -1.57167404      -0.66634630
H       -2.58200295      -2.85212802      -0.09563703
H       -4.77477566      -3.87035596      -3.62815527
H       -3.47933333      -2.71603372      -3.78332445
H       -4.92702124      -1.02427231      -2.53436576
H       -6.22520319      -2.19117089      -2.49699551
H       -7.55163719      -1.56648484      -5.72757710
H       -7.59014819      -2.61574677      -4.33315569
H       -5.87940280      -4.12524478      -5.40806497
H       -5.76211266      -3.00959571      -6.78833769
H       -5.61736740       0.76307516      -3.82910991
H       -6.70774288       0.52275288      -5.25118300
H       -4.90588698      -0.75377649      -6.42077909
H       -3.81185558      -0.52113991      -4.99443442
H       -2.67793952      -5.14549781      -0.89540725
H       -3.62413559      -5.56734525      -2.38154003
H       -5.68947726      -4.58154297      -1.34852183
H       -4.74375064      -4.15512737       0.13804747
C       -7.51350131      -4.03606693      -6.60399500
C       -8.44042487      -4.60211262      -7.12824778
Br      -9.93918188      -5.51736064      -7.97592018
C       -1.82504861       1.82504861       1.82504861
C       -1.32691961       1.78759018       3.26006345
C       -2.24387114       2.51048371       4.23947558
C       -2.65046014       3.93402576       3.88445475
C       -1.47607435       4.91212527       3.92331517
C       -1.85123015       6.32674312       3.49625474
C       -2.47528950       7.20620945       4.57527120
C       -3.99172480       7.11573593       4.63747918
C       -0.87665265       7.01552523       2.55210201
C       -2.21335836       6.57572946       2.04214805
C       -3.25172363       1.67209765       5.00151601
C       -2.04084717       2.20472249       5.71004596
H       -2.84735091       1.44681986       1.73099475
H       -1.76994365       2.82814701       1.39458126
H       -0.32121597       2.22422121       3.32066702
H       -1.21224042       0.74093607       3.57659151
H       -3.41825781       4.26721470       4.58781438
H       -3.13239176       3.94676962       2.89953013
H       -0.67663414       4.53673527       3.27228991
H       -1.04436157       4.93770480       4.93130321
H       -2.19113900       8.25292311       4.40163701
H       -2.04255795       6.94664131       5.54985140
H       -4.34801748       6.12950497       4.93519010
H       -4.46710011       7.39842180       3.69452415
H       -0.00088602       6.47505034       2.20746580
H       -0.70059377       8.08116811       2.65441112
H       -2.93159265       7.35087480       1.79797512
H       -2.23583185       5.73690370       1.35469435
H       -3.29768747       0.60344222       4.81771488
H       -4.21330324       2.10398147       5.25573616
H       -2.18535234       2.99932509       6.43486463
H       -1.26608904       1.50028885       5.99445266
C       -4.49329581       8.02682244       5.63344498
C       -4.91336154       8.78985739       6.46756634
Br      -5.59257228      10.02362038       7.81627004
C        1.82504861      -1.82504861       1.82504861
C        1.23800281      -1.91277810       3.22379233
C        2.13834794      -2.64056675       4.21491573
C        2.65873988      -4.00991107       3.80028970
C        1.55102590      -5.05899622       3.70149267
C        2.04396787      -6.41665574       3.21360440
C        2.65676247      -7.32498636       4.27502132
C        4.15724454      -7.14546776       4.44222760
C        1.17684444      -7.10066888       2.16676656
C        2.51064690      -6.54672420       1.77386477
C        3.04000661      -1.79353678       5.09179391
C        1.82537885      -2.44522635       5.68501041
H        2.82412973      -1.37914272       1.82189308
H        1.86264223      -2.79916886       1.33086083
H        0.26135401      -2.41362653       3.19112366
H        1.03547850      -0.89825908       3.59603043
H        3.40194459      -4.34063316       4.53070914
H        3.20027759      -3.92815003       2.85026389
H        0.77030672      -4.69163571       3.02371690
H        1.06059954      -5.17734417       4.67542587
H        2.45327326      -8.37354838       4.01887749
H        2.14863907      -7.15721398       5.23319762
H        4.42890733      -6.16084947       4.82295575
H        4.70740768      -7.33571311       3.51692527
H        0.29036698      -6.59373996       1.79929521
H        1.06523676      -8.17955558       2.19138065
H        3.29196305      -7.25838042       1.53009909
H        2.52028202      -5.66474092       1.14240695
H        3.02687537      -0.71431500       4.97765421
H        4.01038530      -2.18108246       5.38155311
H        1.97683229      -3.27532660       6.36738317
H        0.98993586      -1.81012380       5.96077089
C        4.65524842      -8.08738363       5.41093119
C        5.07232667      -8.87623816       6.22222044
Br       5.74670692     -10.15174923       7.53400655
C       -0.00445707       0.01189536      -1.78238275
H       -0.66409135       0.67374010      -2.43557963
H        0.65740317      -0.63156657      -2.45157240
C       -0.90989263      -0.90692880      -0.91072765
C        0.90977584       0.90977584      -0.90977584
C       -0.00465871       1.77757030       0.00794375
H       -0.66225468       2.44313916      -0.64384735
H        0.64322798       2.43503045       0.67728295
C       -1.78241447       0.00034974      -0.00472694
H       -2.45427497      -0.65498947       0.64260836
H       -2.43311707       0.67328779      -0.65473579
C       -0.91132561       0.90220522       0.91563759
C       -0.01476271      -0.02253852       1.78660255
H       -0.67934791      -0.69751639       2.42135241
H        0.63392994       0.61504881       2.47327442
C        0.01484550      -1.77751727      -0.01636693
H        0.67870853      -2.42144646      -0.68295456
H       -0.62264859      -2.45592969       0.64226336
C        1.78714474       0.01002794       0.00389507
H        2.44202412       0.67113390       0.66197326
H        2.45385902      -0.65136977      -0.64189061
C        0.91606151      -0.90478549       0.90901405
