86
Properties=species:S:1:pos:R:3 pbc="F F F"
C        1.79142960       1.79142960      -1.79142960
C        1.58512838       3.16289891      -1.81826557
C        2.38744978       3.95928496      -2.63490446
C        3.41144047       3.39795203      -3.41946862
Br       4.25983512       4.63703557      -4.58515537
C        3.64513637       2.01287867      -3.37116614
C        2.80322369       1.21582637      -2.56020991
N        4.67777558       1.33521061      -4.07540743
C        5.84991651       1.77743082      -4.63658647
N        6.48875892       0.76789177      -5.18506536
N        5.72683492      -0.33494867      -4.92994496
N        4.64777691      -0.01417499      -4.23335675
H        0.79731453       3.62076442      -1.22461589
H        2.18787339       5.02972706      -2.66758137
H        2.94324062       0.13642476      -2.50069275
H        6.22544173       2.78396997      -4.58872620
C       -1.79142960      -1.79142960      -1.79142960
C       -2.06505045      -3.09549581      -1.40574659
C       -2.86180272      -3.89731340      -2.22252309
C       -3.40485529      -3.40194329      -3.42206254
Br      -4.30779406      -4.71278986      -4.46144215
C       -3.15676071      -2.07143813      -3.80098234
C       -2.32246748      -1.28075975      -2.97603274
N       -3.68790855      -1.44104621      -4.95943887
C       -4.76264539      -1.74300098      -5.75828742
N       -4.86213743      -0.85609144      -6.72348719
N       -3.85849912       0.04231012      -6.50564221
N       -3.16173513      -0.27851157      -5.42671197
H       -1.65364276      -3.50358650      -0.48546559
H       -3.03749192      -4.92869527      -1.91899463
H       -2.09635754      -0.24685878      -3.23714181
H       -5.45808107      -2.54652750      -5.59352933
C       -1.79142960       1.79142960       1.79142960
C       -2.57892094       1.21194094       2.77543097
C       -3.38966767       2.02343944       3.56853210
C       -3.41096691       3.41975755       3.39813667
Br      -4.71323567       4.30853031       4.46026007
C       -2.59078072       4.01444103       2.42395943
C       -1.79659963       3.17436319       1.60829715
N       -2.48556405       5.41290169       2.18992788
C       -2.79519180       6.50031025       2.96843175
N       -2.51841462       7.60741951       2.31588192
N       -1.98780136       7.21117369       1.12285617
N       -1.93105271       5.89086241       1.04504355
H       -2.58380878       0.13465456       2.92423151
H       -4.02573629       1.54627942       4.31316612
H       -1.15305057       3.59290894       0.83439862
H       -3.15459412       6.46228675       3.98125703
C        1.79142960      -1.79142960       1.79142960
C        2.60227709      -1.20931952       2.75469625
C        3.41274552      -2.02108095       3.54781273
C        3.41064164      -3.41994687       3.39827262
Br       4.71544088      -4.31239356       4.45419163
C        2.56702883      -4.01660699       2.44554536
C        1.77320693      -3.17685979       1.62919325
N        2.43744246      -5.41664887       2.23430229
C        2.74257025      -6.49689088       3.02447267
N        2.43947157      -7.60929056       2.39295392
N        1.89682871      -7.22289104       1.20211146
N        1.85860108      -5.90317905       1.10517854
H        2.62547848      -0.13013167       2.88708469
H        4.06705572      -1.54255349       4.27557261
H        1.11184898      -3.59710932       0.87139982
H        3.11778832      -6.44921449       4.03113509
C       -0.00445707       0.01189536      -1.78238275
H       -0.66409135       0.67374010      -2.43557963
H        0.65740317      -0.63156657      -2.45157240
C       -0.90989263      -0.90692880      -0.91072765
C        0.90977584       0.90977584      -0.90977584
C       -0.00465871       1.77757030       0.00794375
H       -0.66225468       2.44313916      -0.64384735
H        0.64322798       2.43503045       0.67728295
C       -1.78241447       0.00034974      -0.00472694
H       -2.45427497      -0.65498947       0.64260836
H       -2.43311707       0.67328779      -0.65473579
C       -0.91132561       0.90220522       0.91563759
C       -0.01476271      -0.02253852       1.78660255
H       -0.67934791      -0.69751639       2.42135241
H        0.63392994       0.61504881       2.47327442
C        0.01484550      -1.77751727      -0.01636693
H        0.67870853      -2.42144646      -0.68295456
H       -0.62264859      -2.45592969       0.64226336
C        1.78714474       0.01002794       0.00389507
H        2.44202412       0.67113390       0.66197326
H        2.45385902      -0.65136977      -0.64189061
C        0.91606151      -0.90478549       0.90901405
