154
Properties=species:S:1:pos:R:3 pbc="F F F"
C        1.79129823       1.79129823      -1.79129823
C        1.69008956       3.17117051      -1.70970594
C        2.52557784       3.96894257      -2.49298865
C        3.50731194       3.41519071      -3.34594894
C        3.56240990       1.99698678      -3.45306148
C        2.70174276       1.20109214      -2.66949564
N        4.45855848       1.32271432      -4.33177136
C        4.37291408       0.03811439      -4.81888399
N        5.37066152      -0.19307208      -5.63946951
N        6.10252322       0.96300325      -5.65633673
N        5.56736113       1.87861640      -4.87076859
C        4.36462715       4.35802354      -4.10632736
C        4.15227699       4.44325285      -5.50122261
C        4.93195024       5.25819633      -6.32316209
C        5.92822087       6.03955242      -5.75629493
C        6.12827561       6.03762014      -4.37804815
C        5.35227798       5.21037794      -3.53711232
N        5.60146341       5.27980442      -2.13699317
C        6.24033056       6.27673080      -1.43089620
N        6.21384285       5.99795276      -0.14895995
N        5.56253638       4.80061811      -0.04651803
N        5.19600031       4.35553152      -1.23929896
H        0.98410160       3.63888853      -1.02821075
H        2.42954462       5.05178418      -2.40353763
H        2.75389969       0.11501139      -2.68476144
H        3.57216467      -0.64911904      -4.59351651
H        3.38268737       3.82970834      -5.97587909
H        4.76891251       5.25592733      -7.39735577
H        6.93184137       6.65643968      -3.98530322
H        6.65146305       7.17133397      -1.87081725
C        6.76669433       6.85269405      -6.59853180
C        7.46891585       7.53370017      -7.30390518
Br       8.60434866       8.63482946      -8.44443428
C       -1.79129823      -1.79129823      -1.79129823
C       -2.84896547      -1.23148805      -2.49051250
C       -3.62677993      -2.03857025      -3.32215889
C       -3.34800662      -3.41168735      -3.50875762
C       -2.28927444      -3.97842934      -2.74475438
C       -1.52081612      -3.15681291      -1.89470150
N       -1.95847333      -5.36344822      -2.79112263
C       -1.25531482      -6.10538216      -1.86921547
N       -1.20385042      -7.35893197      -2.25427656
N       -1.87514393      -7.40079306      -3.44592622
N       -2.32829083      -6.20739260      -3.78106269
C       -4.21881997      -4.16649566      -4.44366241
C       -5.11258117      -5.10494667      -3.87922461
C       -5.94261836      -5.90610313      -4.66458717
C       -5.92088674      -5.75932141      -6.04386007
C       -5.10470194      -4.80043267      -6.63880929
C       -4.25360772      -3.99048594      -5.85567457
N       -3.46511254      -3.01857264      -6.53457582
C       -3.64900131      -2.50022554      -7.79873071
N       -2.74312489      -1.58117492      -8.03645576
N       -1.96746548      -1.53004808      -6.91215897
N       -2.38934508      -2.39748401      -6.00400171
H       -3.06622041      -0.16901050      -2.41596997
H       -4.44824138      -1.57050892      -3.86611614
H       -0.67047354      -3.54450116      -1.33869781
H       -0.85595991      -5.71437656      -0.94622567
H       -5.14166562      -5.25002496      -2.79658423
H       -6.57809596      -6.65078412      -4.19331553
H       -5.11345233      -4.73567362      -7.72445833
H       -4.45061928      -2.77901014      -8.46398485
C       -6.74177180      -6.60881625      -6.86733214
C       -7.42926303      -7.32026818      -7.55698999
Br      -8.54087821      -8.47062579      -8.67210840
C       -1.79129823       1.79129823       1.79129823
C       -2.85369352       1.23285856       2.48441394
C       -3.63160109       2.03973796       3.31617001
C       -3.34837382       3.41108212       3.50899565
C       -2.28464306       3.97669306       2.75112204
C       -1.51607667       3.15538413       1.90086973
N       -1.94881481       5.36026968       2.80395968
C       -1.23939821       6.10300548       1.88750877
N       -1.18467503       7.35489571       2.27748821
N       -1.86029840       7.39480951       3.46675529
N       -2.31918996       6.20187607       3.79568009
C       -4.21986514       4.16565114       4.44346177
C       -5.10795573       5.10958343       3.87921330
C       -5.93793291       5.91090824       4.66446750
C       -5.92195817       5.75886139       6.04324865
C       -5.11163484       4.79466971       6.63763935
C       -4.26064239       3.98446691       5.85465893
N       -3.47837404       3.00703973       6.53284723
C       -3.66897923       2.48464146       7.79433687
N       -2.76746778       1.56129181       8.03199598
N       -1.98776898       1.51146535       6.91043820
N       -2.40295460       2.38389506       6.00398114
H       -3.07465834       0.17149614       2.40504640
H       -4.45686316       1.57273817       3.85526511
H       -0.66219059       3.54194829       1.34953364
H       -0.83803595       5.71396830       0.96455790
H       -5.13240896       5.25883945       2.79702639
H       -6.56882359       6.65974837       4.19362365
H       -5.12472532       4.72586324       7.72299572
H       -4.47204815       2.76394613       8.45762000
C       -6.74274544       6.60834611       6.86682864
C       -7.43015477       7.31978956       7.55657688
Br      -8.54163752       8.47013344       8.67184144
C        1.79129823      -1.79129823       1.79129823
C        1.32795075      -3.02632970       2.21668556
C        2.15489713      -3.84066809       2.99194384
C        3.47481854      -3.46408481       3.32954824
C        3.91472705      -2.17214619       2.92558492
C        3.06441623      -1.35092800       2.15698630
N        5.19601365      -1.65061438       3.26641614
C        5.60575493      -0.33665918       3.28749835
N        6.84871581      -0.26572511       3.70261804
N        7.22928266      -1.55979083       3.93278971
N        6.24676205      -2.40067873       3.66930534
C        4.27753157      -4.42297971       4.12846676
C        4.54324400      -4.07978852       5.47371994
C        5.32865363      -4.88087230       6.30378273
C        5.84142655      -6.07185200       5.81078967
C        5.54955428      -6.48209842       4.51229120
C        4.76400976      -5.67587210       3.65988637
N        4.49133857      -6.17306086       2.35386157
C        4.57895786      -7.47112920       1.89787050
N        4.18398954      -7.52887350       0.64789252
N        3.85724224      -6.24643569       0.30599460
N        4.04598164      -5.42040815       1.32444100
H        0.33805412      -3.37703789       1.93610887
H        1.76751462      -4.81047224       3.30687957
H        3.38738858      -0.38159344       1.78469051
H        4.97440875       0.50460564       3.04675903
H        4.16225716      -3.14160647       5.88441117
H        5.55063228      -4.55526648       7.31629685
H        5.98813402      -7.41632883       4.16912143
H        4.87956757      -8.31287659       2.50117011
C        6.68750210      -6.88645006       6.64396803
C        7.39609037      -7.56867592       7.34175491
Br       8.54181767      -8.67177745       8.47001727
C       -0.00445707       0.01189536      -1.78238275
H       -0.66409135       0.67374010      -2.43557963
H        0.65740317      -0.63156657      -2.45157240
C       -0.90989263      -0.90692880      -0.91072765
C        0.90977584       0.90977584      -0.90977584
C       -0.00465871       1.77757030       0.00794375
H       -0.66225468       2.44313916      -0.64384735
H        0.64322798       2.43503045       0.67728295
C       -1.78241447       0.00034974      -0.00472694
H       -2.45427497      -0.65498947       0.64260836
H       -2.43311707       0.67328779      -0.65473579
C       -0.91132561       0.90220522       0.91563759
C       -0.01476271      -0.02253852       1.78660255
H       -0.67934791      -0.69751639       2.42135241
H        0.63392994       0.61504881       2.47327442
C        0.01484550      -1.77751727      -0.01636693
H        0.67870853      -2.42144646      -0.68295456
H       -0.62264859      -2.45592969       0.64226336
C        1.78714474       0.01002794       0.00389507
H        2.44202412       0.67113390       0.66197326
H        2.45385902      -0.65136977      -0.64189061
C        0.91606151      -0.90478549       0.90901405
