146
Properties=species:S:1:pos:R:3 pbc="F F F"
C        1.79129823       1.79129823      -1.79129823
C        1.69008956       3.17117051      -1.70970594
C        2.52557784       3.96894257      -2.49298865
C        3.50731194       3.41519071      -3.34594894
C        3.56240990       1.99698678      -3.45306148
C        2.70174276       1.20109214      -2.66949564
N        4.45855848       1.32271432      -4.33177136
C        4.37291408       0.03811439      -4.81888399
N        5.37066152      -0.19307208      -5.63946951
N        6.10252322       0.96300325      -5.65633673
N        5.56736113       1.87861640      -4.87076859
C        4.36462715       4.35802354      -4.10632736
C        4.15227699       4.44325285      -5.50122261
C        4.93195024       5.25819633      -6.32316209
C        5.92822087       6.03955242      -5.75629493
C        6.12827561       6.03762014      -4.37804815
C        5.35227798       5.21037794      -3.53711232
N        5.60146341       5.27980442      -2.13699317
C        6.24033056       6.27673080      -1.43089620
N        6.21384285       5.99795276      -0.14895995
N        5.56253638       4.80061811      -0.04651803
N        5.19600031       4.35553152      -1.23929896
Br       7.02909407       7.10716621      -6.86210930
H        0.98410160       3.63888853      -1.02821075
H        2.42954462       5.05178418      -2.40353763
H        2.75389969       0.11501139      -2.68476144
H        3.57216467      -0.64911904      -4.59351651
H        3.38268737       3.82970834      -5.97587909
H        4.76891251       5.25592733      -7.39735577
H        6.93184137       6.65643968      -3.98530322
H        6.65146305       7.17133397      -1.87081725
C       -1.79129823      -1.79129823      -1.79129823
C       -2.72126940      -1.21055482      -2.63914180
C       -3.49713800      -2.02269692      -3.46767414
C       -3.33985098      -3.42700980      -3.50159081
C       -2.41533443      -4.00831285      -2.58881089
C       -1.64895581      -3.17910586      -1.74426886
N       -2.22026998      -5.41523342      -2.47754077
C       -1.67965518      -6.12257823      -1.42767905
N       -1.71797442      -7.40758290      -1.69150163
N       -2.28025428      -7.50653762      -2.93507131
N       -2.58121470      -6.31623746      -3.41929396
C       -4.19343285      -4.18919537      -4.44634982
C       -5.22270743      -4.98307191      -3.89097312
C       -6.05390550      -5.78007037      -4.67933279
C       -5.89385707      -5.77292901      -6.05728214
C       -4.93669936      -4.95484049      -6.65240406
C       -4.08356375      -4.15124393      -5.86496055
N       -3.14501210      -3.32605874      -6.54719016
C       -3.16235211      -2.92081712      -7.86478833
N       -2.15236120      -2.11495373      -8.09344064
N       -1.47968023      -2.02285831      -6.90713398
N       -2.06518529      -2.75479586      -5.97084964
Br      -6.97504614      -6.88827164      -7.13505179
H       -2.83822901      -0.13070505      -2.68226682
H       -4.21605115      -1.53876437      -4.13005091
H       -0.89455701      -3.58479164      -1.07432387
H       -1.32820155      -5.67972541      -0.50863518
H       -5.36320649      -5.01719243      -2.80787588
H       -6.79967900      -6.41434646      -4.20817015
H       -4.84136656      -4.99721484      -7.73500287
H       -3.92453637      -3.19080866      -8.57826925
C       -1.79129823       1.79129823       1.79129823
C       -2.72574573       1.21082709       2.63439320
C       -3.50166622       2.02280379       3.46303906
C       -3.34008631       3.42650206       3.50186322
C       -2.41088747       4.00775348       2.59381721
C       -1.64446002       3.17879208       1.74907843
N       -2.21106589       5.41439567       2.48758262
C       -1.66493905       6.12332413       1.44164927
N       -1.70006016       7.40760981       1.70938898
N       -2.26593392       7.50443395       2.95149534
N       -2.57214404       6.31357415       3.43102793
C       -4.19424126       4.18840278       4.44633401
C       -5.21927171       4.98724787       3.89023287
C       -6.05044228       5.78438093       4.67848545
C       -5.89474984       5.77241803       6.05690035
C       -4.94203637       4.94946335       6.65244418
C       -4.08895203       4.14566043       5.86515577
N       -3.15514053       3.31539465       6.54772582
C       -3.17789267       2.90608223       7.86398266
N       -2.17115610       2.09633497       8.09326450
N       -1.49504085       2.00584351       6.90878816
N       -2.07530277       2.74254885       5.97297917
Br      -6.97582111       6.88777105       7.13477741
H       -2.84622398       0.13122050       2.67375640
H       -4.22417130       1.53906027       4.12163486
H       -0.88669106       3.58420175       1.08277971
H       -1.31198746       5.68225103       0.52232365
H       -5.35625739       5.02520416       2.80681325
H       -6.79273939       6.42247195       4.20698427
H       -4.84997520       4.98814475       7.73546432
H       -3.94146633       3.17623125       8.57591669
C        1.79129823      -1.79129823       1.79129823
C        1.42132062      -3.10219514       2.04745025
C        2.25183198      -3.91126325       2.82441383
C        3.48741657      -3.44902663       3.33200839
C        3.82622479      -2.08623916       3.09999421
C        2.97123454      -1.27326138       2.32783461
N        5.00812308      -1.48448264       3.62043845
C        5.27462705      -0.14711802       3.80816739
N        6.45860467      -0.00284686       4.35560742
N        6.94873605      -1.27211648       4.50101068
N        6.08866282      -2.16990966       4.05817363
C        4.30679209      -4.40597025       4.11621571
C        4.40699375      -4.18153760       5.50822110
C        5.18982283      -4.98712674       6.33635909
C        5.86837432      -6.06635932       5.78933458
C        5.74485805      -6.36453072       4.43455513
C        4.96346844      -5.55153065       3.58476913
N        4.86874891      -5.93317974       2.21633235
C        5.13406510      -7.16244658       1.65144587
N        4.86709893      -7.12642685       0.36722978
N        4.44201589      -5.85192361       0.11573303
N        4.44646860      -5.12261529       1.22174690
Br       6.97651341      -7.13452913       6.88732702
H        0.50438807      -3.51360178       1.63321103
H        1.93980576      -4.94086981       3.00419086
H        3.22495774      -0.24421435       2.08450042
H        4.58448022       0.65128032       3.58336224
H        3.89307832      -3.33154864       5.96364784
H        5.27998408      -4.74949904       7.39271250
H        6.30900403      -7.21221732       4.05236292
H        5.46258086      -8.03040408       2.20062933
C       -0.00445707       0.01189536      -1.78238275
H       -0.66409135       0.67374010      -2.43557963
H        0.65740317      -0.63156657      -2.45157240
C       -0.90989263      -0.90692880      -0.91072765
C        0.90977584       0.90977584      -0.90977584
C       -0.00465871       1.77757030       0.00794375
H       -0.66225468       2.44313916      -0.64384735
H        0.64322798       2.43503045       0.67728295
C       -1.78241447       0.00034974      -0.00472694
H       -2.45427497      -0.65498947       0.64260836
H       -2.43311707       0.67328779      -0.65473579
C       -0.91132561       0.90220522       0.91563759
C       -0.01476271      -0.02253852       1.78660255
H       -0.67934791      -0.69751639       2.42135241
H        0.63392994       0.61504881       2.47327442
C        0.01484550      -1.77751727      -0.01636693
H        0.67870853      -2.42144646      -0.68295456
H       -0.62264859      -2.45592969       0.64226336
C        1.78714474       0.01002794       0.00389507
H        2.44202412       0.67113390       0.66197326
H        2.45385902      -0.65136977      -0.64189061
C        0.91606151      -0.90478549       0.90901405
