170
Properties=species:S:1:pos:R:3 pbc="F F F"
C        1.79149422       1.79149422      -1.79149422
C        1.57990853       3.16144744      -1.82716908
C        2.39039827       3.95716902      -2.63739463
C        3.42083879       3.39871074      -3.41874626
C        3.64121357       2.00739167      -3.37972400
C        2.80567029       1.21540581      -2.55593787
N        4.65199991       1.32150156      -4.11723888
C        5.66735569       1.75739211      -4.93198152
N        6.33500816       0.72650942      -5.40105751
N        5.74398923      -0.37692151      -4.86330649
N        4.73360861      -0.03648613      -4.08040796
C        4.15336762       4.33328334      -4.21936020
C        4.76727967       5.12007998      -4.88707905
C        5.63853751       6.01102041      -5.77173286
C        6.41082458       6.58070292      -6.49315113
C        7.37249334       7.18868320      -7.36746688
C        7.15666795       8.54297107      -7.67579441
C        8.02219092       9.23413856      -8.52289016
C        9.11298222       8.57240941      -9.07039721
C        9.35012400       7.22680728      -8.77978490
C        8.48497041       6.51454979      -7.92298427
N        8.77160627       5.14395389      -7.65115198
C        9.79839566       4.36095304      -8.13107246
N        9.70921380       3.15283688      -7.62598694
N        8.60921518       3.17209008      -6.81814859
N        8.03697387       4.36593606      -6.82518762
H        0.79121344       3.61945844      -1.23556817
H        2.20631321       5.03128688      -2.65898613
H        2.94082638       0.13536167      -2.49677420
H        5.90727427       2.78109628      -5.15291292
H        6.30258926       9.07147852      -7.25353968
H        7.83429101      10.28143439      -8.74639353
H       10.22051268       6.76335526      -9.23531678
H       10.55864962       4.69233879      -8.81881522
C       10.01023810       9.28051996      -9.94624613
C       10.76168990       9.87356255     -10.67976960
Br      11.97672391      10.83246225     -11.86581501
C       -1.79149422      -1.79149422      -1.79149422
C       -1.26135685      -2.93230392      -2.37486428
C       -2.07556268      -3.72963744      -3.17976180
C       -3.42579154      -3.40156395      -3.41094031
C       -3.96810019      -2.24567318      -2.81455587
C       -3.12557776      -1.44609946      -2.00533675
N       -5.31772423      -1.80767600      -2.96534013
C       -6.40989721      -2.35592072      -3.59091140
N       -7.44395511      -1.55384529      -3.46477468
N       -7.00451533      -0.49022860      -2.73563028
N       -5.72796364      -0.63074355      -2.41882324
C       -4.13086060      -4.29744264      -4.27770792
C       -4.71966133      -5.05227889      -5.00249848
C       -5.59069680      -5.93770414      -5.89288983
C       -6.39683185      -6.54169538      -6.54615140
C       -7.41811481      -7.20919468      -7.30133393
C       -6.98710134      -8.26406307      -8.12426902
C       -7.89094563      -8.97821267      -8.91006134
C       -9.23706924      -8.63990852      -8.87881108
C       -9.69135332      -7.59597569      -8.06938717
C       -8.78976401      -6.86557960      -7.26716084
N       -9.30163028      -5.81236717      -6.45271470
C      -10.59723425      -5.35970310      -6.33348380
N      -10.64604042      -4.37590287      -5.46609433
N       -9.36309653      -4.20274708      -5.03361024
N       -8.54507498      -5.06245874      -5.62056382
H       -0.22234299      -3.20912092      -2.21477613
H       -1.64130372      -4.61914426      -3.63613823
H       -3.50392659      -0.54323982      -1.52579584
H       -6.44062265      -3.30259499      -4.09806582
H       -5.93275537      -8.53658522      -8.15826686
H       -7.53341672      -9.79020114      -9.53850108
H      -10.75558041      -7.37903401      -8.08457030
H      -11.44188985      -5.75463566      -6.87327812
C      -10.17538334      -9.37331631      -9.68830454
C      -10.96122139      -9.98754533     -10.36625532
Br     -12.23185506     -10.98070172     -11.46244439
C       -1.79149422       1.79149422       1.79149422
C       -2.97976392       1.28900373       2.29975740
C       -3.77821179       2.10385870       3.10289143
C       -3.40194122       3.42601131       3.41034326
C       -2.19203189       3.93685252       2.89944483
C       -1.39753384       3.09728682       2.08219332
N       -1.69701794       5.25326257       3.14045984
C       -2.14406807       6.28648664       3.92617462
N       -1.34203965       7.32057194       3.79996350
N       -0.36464652       6.93135998       2.93436772
N       -0.55810893       5.68565178       2.53376972
C       -4.33168441       4.15080746       4.22351929
C       -5.11210639       4.75451265       4.90781966
C       -6.00598251       5.63047101       5.78483726
C       -6.58927356       6.42454758       6.47085749
C       -7.22174020       7.42542295       7.28148028
C       -8.53600654       7.14551661       7.69391027
C       -9.25165151       8.05023200       8.47733614
C       -8.65562568       9.24622497       8.85393819
C       -7.35067692       9.54845939       8.45757987
C       -6.61302317       8.64264227       7.66683903
N       -5.28203426       8.99269536       7.29198252
C       -4.57401971      10.13954998       7.57685147
N       -3.37308695      10.06186989       7.05308078
N       -3.32277505       8.85048628       6.42619252
N       -4.46641948       8.19786414       6.56381392
H       -3.29565512       0.27275177       2.07783316
H       -4.71230618       1.69557335       3.48870668
H       -0.45490675       3.45246991       1.66558558
H       -3.00645700       6.26811334       4.56671313
H       -9.01430144       6.21103948       7.40226653
H      -10.26698746       7.81115913       8.78397235
H       -6.93654467      10.49781702       8.78482303
H       -4.95192245      10.97428519       8.14359599
C       -9.38957658      10.18485543       9.66257218
C      -10.00426045      10.97095845      10.33980315
Br     -10.99815228      12.24202054      11.43482834
C        1.79149422      -1.79149422       1.79149422
C        2.99921419      -1.30292316       2.26638770
C        3.79743527      -2.11768036       3.06984629
C        3.40163888      -3.42583809       3.41081882
C        2.17207239      -3.92237756       2.93387930
C        1.37800073      -3.08327315       2.11574010
N        1.65636911      -5.22372867       3.21064257
C        2.09872315      -6.25011974       4.00788643
N        1.27432609      -7.27031090       3.91793810
N        0.28768474      -6.87869010       3.06399938
N        0.49739999      -5.64512734       2.63500310
C        4.33306063      -4.15298737       4.21996316
C        5.11501726      -4.75863595       4.90078548
C        6.00890750      -5.63493008       5.77745319
C        6.59013085      -6.42692116       6.46762662
C        7.21895586      -7.42417869       7.28550887
C        8.54637581      -7.16248097       7.66657665
C        9.25968140      -8.06580093       8.45373731
C        8.64805131      -9.24212775       8.86560978
C        7.32982953      -9.52601677       8.50086987
C        6.59439968      -8.62130036       7.70680442
N        5.24964291      -8.95205211       7.36501711
C        4.52520118     -10.07882111       7.68639887
N        3.31583049      -9.98749735       7.18470977
N        3.27669507      -8.78781022       6.53494856
N        4.43536230      -8.15550724       6.63722801
H        3.33038957      -0.29767807       2.01817240
H        4.74680536      -1.72060993       3.42917092
H        0.42052445      -3.42769278       1.72474503
H        2.97387770      -6.23641538       4.63099039
H        9.03690999      -6.24356944       7.34712803
H       10.28538603      -7.84103777       8.73569513
H        6.90385104     -10.46038505       8.85494864
H        4.89795020     -10.90969575       8.26215769
C        9.37949568     -10.17922212       9.67828639
C        9.99208034     -10.96403865      10.35890306
Br      10.98257792     -12.23302061      11.45940264
C       -0.00445707       0.01189536      -1.78238275
H       -0.66409135       0.67374010      -2.43557963
H        0.65740317      -0.63156657      -2.45157240
C       -0.90989263      -0.90692880      -0.91072765
C        0.90977584       0.90977584      -0.90977584
C       -0.00465871       1.77757030       0.00794375
H       -0.66225468       2.44313916      -0.64384735
H        0.64322798       2.43503045       0.67728295
C       -1.78241447       0.00034974      -0.00472694
H       -2.45427497      -0.65498947       0.64260836
H       -2.43311707       0.67328779      -0.65473579
C       -0.91132561       0.90220522       0.91563759
C       -0.01476271      -0.02253852       1.78660255
H       -0.67934791      -0.69751639       2.42135241
H        0.63392994       0.61504881       2.47327442
C        0.01484550      -1.77751727      -0.01636693
H        0.67870853      -2.42144646      -0.68295456
H       -0.62264859      -2.45592969       0.64226336
C        1.78714474       0.01002794       0.00389507
H        2.44202412       0.67113390       0.66197326
H        2.45385902      -0.65136977      -0.64189061
C        0.91606151      -0.90478549       0.90901405
