86
Properties=species:S:1:pos:R:3 pbc="F F F"
C        1.79199088       1.79199088      -1.79199088
C        1.47786592       3.13918667      -1.94914562
C        2.28748263       3.93588470      -2.75507770
Br       1.86917702       5.76772986      -2.97514396
C        3.40484855       3.40301829      -3.40427356
C        3.71666342       2.04563874      -3.24255673
C        2.90294343       1.23849573      -2.43076243
N        4.84124811       1.47501024      -3.88620339
C        5.76702500       2.05809644      -4.71446246
N        6.64584833       1.15661296      -5.08833799
N        6.26149007      -0.00954476      -4.48254828
N        5.17033896       0.17024055      -3.75201998
H        0.61125021       3.56320232      -1.44867893
H        4.00677120       4.06280935      -4.02262126
H        3.12478106       0.18123004      -2.28973989
H        5.76388965       3.09563088      -5.00622821
C       -1.79199088      -1.79199088      -1.79199088
C       -1.22771484      -2.87019343      -2.46828994
C       -2.03927003      -3.66898809      -3.27018690
Br      -1.28216943      -5.13648606      -4.19339535
C       -3.40510525      -3.40332839      -3.40370675
C       -3.96825053      -2.31622150      -2.72038686
C       -3.15356051      -1.50799879      -1.91064228
N       -5.34807478      -2.02008475      -2.83430223
C       -6.32534888      -2.65873280      -3.55550221
N       -7.47226843      -2.04548711      -3.37304373
N       -7.20574625      -1.00582895      -2.52291840
N       -5.92325491      -0.97980889      -2.18953568
H       -0.16677278      -3.08522980      -2.37112888
H       -3.99831752      -4.05374743      -4.04013686
H       -3.56799498      -0.65784122      -1.36991478
H       -6.16540989      -3.52784426      -4.17249459
C       -1.79199088       1.79199088       1.79199088
C       -3.07217569       1.36270076       2.13132177
C       -3.86938527       2.17319662       2.93586313
Br      -5.61049440       1.59895195       3.40260449
C       -3.40306537       3.40492947       3.40414554
C       -2.11300558       3.83244015       3.05941316
C       -1.30562601       3.01831361       2.24826196
N       -1.61073416       5.07450341       3.51722419
C       -2.20749736       6.02378562       4.30830092
N       -1.37786531       7.02609291       4.48684107
N       -0.24340886       6.69621647       3.79486826
N       -0.37197114       5.51703342       3.20359493
H       -3.44414476       0.40663773       1.77234897
H       -4.06052660       4.00284808       4.02882713
H       -0.29995081       3.32881475       1.96698543
H       -3.20290500       5.94825110       4.71459264
C        1.79199088      -1.79199088       1.79199088
C        2.93278227      -1.25293420       2.38048175
C        3.73107265      -2.06428619       3.18308619
Br       5.28339105      -1.34136287       3.98729691
C        3.40321011      -3.40505759       3.40387269
C        2.25320145      -3.94285743       2.80880001
C        1.44527954      -3.12828861       1.99863343
N        1.89316027      -5.29693222       3.01236926
C        2.51862884      -6.26889582       3.75205924
N        1.83838730      -7.38882028       3.66359170
N        0.76958292      -7.11055400       2.85435666
N        0.79152075      -5.84738667       2.45369206
H        3.19646475      -0.21159344       2.21507326
H        4.05581732      -3.99915155       4.03723294
H        0.54692662      -3.52330339       1.52552098
H        3.42666921      -6.12464273       4.31443680
C       -0.00445707       0.01189536      -1.78238275
H       -0.66409135       0.67374010      -2.43557963
H        0.65740317      -0.63156657      -2.45157240
C       -0.90989263      -0.90692880      -0.91072765
C        0.90977584       0.90977584      -0.90977584
C       -0.00465871       1.77757030       0.00794375
H       -0.66225468       2.44313916      -0.64384735
H        0.64322798       2.43503045       0.67728295
C       -1.78241447       0.00034974      -0.00472694
H       -2.45427497      -0.65498947       0.64260836
H       -2.43311707       0.67328779      -0.65473579
C       -0.91132561       0.90220522       0.91563759
C       -0.01476271      -0.02253852       1.78660255
H       -0.67934791      -0.69751639       2.42135241
H        0.63392994       0.61504881       2.47327442
C        0.01484550      -1.77751727      -0.01636693
H        0.67870853      -2.42144646      -0.68295456
H       -0.62264859      -2.45592969       0.64226336
C        1.78714474       0.01002794       0.00389507
H        2.44202412       0.67113390       0.66197326
H        2.45385902      -0.65136977      -0.64189061
C        0.91606151      -0.90478549       0.90901405
