65
Properties=species:S:1:pos:R:3 pbc="F F F"
C        0.00000000       0.00000000       0.00000000
C        0.88208686       0.88208686      -0.88208686
C        0.56796190       2.22928265      -1.03924160
C        1.37757861       3.02598067      -1.84517367
Br       0.95927300       4.85782583      -2.06523994
C        2.49494452       2.49311426      -2.49436953
C        2.80675940       1.13573472      -2.33265270
C        1.99303940       0.32859171      -1.52085840
N        3.93134409       0.56510622      -2.97629937
C        4.85712098       1.14819241      -3.80455843
N        5.73594431       0.24670893      -4.17843397
N        5.35158604      -0.91944878      -3.57264426
N        4.26043493      -0.73966348      -2.84211595
H       -0.29865382       2.65329830      -0.53877490
H        3.09686718       3.15290532      -3.11271724
H        2.21487704      -0.72867399      -1.37983586
H        4.85398563       2.18572686      -4.09632419
C       -0.88208686      -0.88208686      -0.88208686
C       -0.58997836      -2.23738909      -1.00911869
C       -1.39942422      -3.03402371      -1.81528501
Br      -1.01093750      -4.87684952      -1.99455174
C       -2.49492127      -2.49310431      -2.49440274
C       -2.78461567      -1.12757956      -2.36295158
C       -1.97098175      -0.32046974      -1.55103801
N       -3.88673553      -0.54867844      -3.03733571
C       -4.80797644      -1.13008688      -3.87180850
N       -5.66320491      -0.21991794      -4.27796436
N       -5.26847967       0.95004819      -3.68635005
N       -4.19416994       0.76405975      -2.93277722
H        0.25953387      -2.66770287      -0.48525039
H       -3.09761066      -3.15317790      -3.11170118
H       -2.17586835       0.74303749      -1.43320805
H       -4.81863811      -2.17269353      -4.14470504
C       -0.88208686       0.88208686       0.88208686
C       -2.14723383       0.43541647       1.25383584
C       -2.94455992       1.24604779       2.05812523
Br      -4.66530244       0.64826187       2.56877445
C       -2.49317673       2.49504544       2.49420615
C       -1.21822564       2.94001903       2.11690215
C       -0.41078782       2.12582277       1.30587891
N       -0.73129791       4.19981777       2.54163399
C       -1.33115659       5.15268970       3.32602553
N       -0.51764122       6.17362076       3.46982523
N        0.60973120       5.85191804       2.76259467
N        0.49267125       4.65943751       2.19612115
H       -2.50752100      -0.53414916       0.92004754
H       -3.15011434       3.09235850       3.12001689
H        0.58330943       2.44970562       0.99964272
H       -2.31713770       5.06627273       3.75262624
C        0.88208686      -0.88208686       0.88208686
C        2.25613476      -0.66093628       0.91941511
C        3.05261858      -1.46981132       1.72630305
Br       4.92084787      -1.17748437       1.78400652
C        2.49306955      -2.49478970       2.49456907
C        1.10870564      -2.71317225       2.45326894
C        0.30168519      -1.89987663       1.64092768
N        0.51066534      -3.74284466       3.21923967
C        1.08813010      -4.64915754       4.07258418
N        0.15789455      -5.42842793       4.57476473
N       -1.02080517      -5.00064345       4.02494324
N       -0.82045414      -3.98070040       3.20264115
H        2.70101797       0.13342628       0.32582769
H        3.15379840      -3.09995943       3.10873191
H       -0.77625670      -2.05012374       1.59217188
H        2.14239990      -4.70396771       4.28966907
