73
Properties=species:S:1:pos:R:3 pbc="F F F"
C        0.00000000       0.00000000       0.00000000
C        0.88208686       0.88208686      -0.88208686
C        0.56796190       2.22928265      -1.03924160
C        1.37757861       3.02598067      -1.84517367
C        2.49494452       2.49311426      -2.49436953
C        2.80675940       1.13573472      -2.33265270
C        1.99303940       0.32859171      -1.52085840
N        3.93134409       0.56510622      -2.97629937
C        4.85712098       1.14819241      -3.80455843
N        5.73594431       0.24670893      -4.17843397
N        5.35158604      -0.91944878      -3.57264426
N        4.26043493      -0.73966348      -2.84211595
H       -0.29865382       2.65329830      -0.53877490
H        3.09686718       3.15290532      -3.11271724
H        2.21487704      -0.72867399      -1.37983586
H        4.85398563       2.18572686      -4.09632419
C        1.05917985       4.42031344      -2.01267997
C        0.79252089       5.58806714      -2.15296649
Br       0.36135591       7.47622610      -2.37979794
C       -0.88208686      -0.88208686      -0.88208686
C       -0.47527698      -2.17937969      -1.18182947
C       -1.28561268      -2.97646737      -1.98665290
C       -2.49504173      -2.49317374      -2.49421284
C       -2.89997918      -1.18593515      -2.18923249
C       -2.08589751      -0.37858974      -1.37800225
N       -4.11913579      -0.66623121      -2.68738268
C       -5.06400464      -1.25963574      -3.48623145
N       -6.04215862      -0.41162242      -3.70730617
N       -5.70144741       0.73107957      -3.03441367
N       -4.53939848       0.58947778      -2.41296671
H        0.46334067      -2.56462513      -0.79213493
H       -3.09373671      -3.15122581      -3.11752721
H       -2.37909558       0.64025352      -1.12719686
H       -5.00278286      -2.26593573      -3.86731807
C       -0.87166443      -4.31934957      -2.30115926
C       -0.52498277      -5.44401341      -2.56455834
Br       0.03557214      -7.26249972      -2.99045236
C       -0.88208686       0.88208686       0.88208686
C       -2.12466793       0.41266520       1.29915302
C       -2.92216892       1.22347387       2.10309017
C       -2.49319995       2.49507173       2.49415664
C       -1.24092117       2.96290482       2.07132082
C       -0.43339577       2.14861719       1.26047655
N       -0.77701842       4.24591996       2.44981131
C       -1.38152296       5.20349160       3.22485727
N       -0.59219221       6.24880153       3.32009347
N        0.52455072       5.93779769       2.59153455
N        0.42475150       4.72791018       2.05972873
H       -2.46742507      -0.57457580       1.00057011
H       -3.14935180       3.09159210       3.12154584
H        0.54332748       2.49001712       0.91934927
H       -2.35335931       5.10282985       3.67984751
C       -4.20867146       0.74500510       2.53849670
C       -5.28611734       0.34428751       2.90314967
Br      -7.02825619      -0.30363894       3.49276269
C        0.88208686      -0.88208686       0.88208686
C        2.20875934      -0.52322629       1.10450052
C        3.00560898      -1.33317349       1.90995048
C        2.49311451      -2.49494506       2.49436876
C        1.15634816      -2.85169146       2.26710721
C        0.34914793      -2.03784675       1.45549483
N        0.60664411      -4.02188613       2.84421945
C        1.19384185      -4.95662514       3.65940484
N        0.31438591      -5.88346290       3.96323840
N       -0.84197438      -5.52046054       3.32629536
N       -0.67785507      -4.39516154       2.64558094
H        2.61684130       0.37812079       0.65469887
H        3.15219432      -3.09531737       3.11497804
H       -0.69231904      -2.29412158       1.26423637
H        2.21839447      -4.92519272       3.99244948
C        4.37879987      -0.96869082       2.14468258
C        5.52884724      -0.66343657       2.34127071
Br       7.38837657      -0.16986628       2.65913709
