69
Properties=species:S:1:pos:R:3 pbc="F F F"
C        0.00000000       0.00000000       0.00000000
C        0.88097916       0.88097916      -0.88097916
C        0.57602529       2.22633881      -1.04140215
C        1.38902756       3.02500385      -1.85031643
C        2.50147389       2.51268723      -2.50487096
N        3.24155355       3.33528106      -3.26829903
C        4.32322486       2.82029156      -3.90056159
C        4.71166252       1.49849473      -3.80753131
Br       6.23849172       0.88551067      -4.73278740
C        3.94170937       0.65342668      -3.01605278
O        4.26824650      -0.67410511      -2.87712607
C        2.80938837       1.14420762      -2.34040505
C        1.98878411       0.33612341      -1.52298643
H       -0.28647557       2.66676659      -0.54633519
H        1.14709798       4.07886476      -1.97376520
H        4.87845793       3.53622963      -4.50121169
H        5.06919346      -0.84456278      -3.40584753
H        2.22578984      -0.71814756      -1.39592114
C       -0.88097916      -0.88097916      -0.88097916
C       -0.63867526      -2.24624491      -0.95884608
C       -1.45113548      -3.04473468      -1.76847768
C       -2.50188799      -2.51283467      -2.50430942
N       -3.24509615      -3.33642794      -3.26360955
C       -4.26611294      -2.80222299      -3.97574208
C       -4.58958613      -1.45983911      -3.96826332
Br      -6.03509205      -0.82114000      -5.00055774
C       -3.81679837      -0.61384721      -3.18054326
O       -4.08049503       0.73358556      -3.12435799
C       -2.74614511      -1.12415259      -2.42370334
C       -1.92603314      -0.31620150      -1.60565930
H        0.17436405      -2.70238951      -0.39860075
H       -1.25839856      -4.11422410      -1.82710528
H       -4.82744187      -3.52010464      -4.56835275
H       -4.84448108       0.91567195      -3.70166909
H       -2.11401586       0.75364175      -1.54318929
C       -0.88097916       0.88097916       0.88097916
C       -2.14563106       0.44450371       1.25363149
C       -2.94497486       1.25861210       2.06076088
C       -2.51225577       2.50077077       2.50600555
N       -3.33085408       3.23433933       3.27994024
C       -2.89436562       4.44393616       3.70577623
C       -1.65660808       4.96932447       3.39175601
Br      -1.14918563       6.66817714       4.03942702
C       -0.81504259       4.20507909       2.59106717
O        0.43111418       4.66422519       2.23815644
C       -1.22593401       2.94256991       2.12549711
C       -0.41706590       2.12068821       1.31013984
H       -2.52234829      -0.52182003       0.92609796
H       -3.93545310       0.91339394       2.35088089
H       -3.60249393       4.98644241       4.32696292
H        0.55321807       5.54396959       2.63972670
H        0.57402599       2.46065074       1.01693867
C        0.88097916      -0.88097916       0.88097916
C        2.20605513      -0.53147081       1.10624032
C        3.00487845      -1.34482076       1.91464863
C        2.51264306      -2.50137685       2.50501218
N        3.33425459      -3.23929885       3.27158020
C        2.83922345      -4.36481004       3.84004451
C        1.53876807      -4.80012562       3.67879487
Br       0.95281699      -6.38633457       4.51763822
C        0.69448636      -4.03189971       2.88480277
O       -0.61232824      -4.40394355       2.67965215
C        1.16490756      -2.85485717       2.27423631
C        0.35653201      -2.03361298       1.45774895
H        2.63047569       0.36619098       0.66234150
H        4.04280289      -1.06788565       2.08903940
H        3.55322592      -4.91579143       4.44688190
H       -0.77016759      -5.23260750       3.16803831
H       -0.68184423      -2.30553256       1.27987508
