81
Properties=species:S:1:pos:R:3 pbc="F F F"
C        0.00000000       0.00000000       0.00000000
C        0.88140196       0.88140196      -0.88140196
C        0.59156093       2.22957684      -1.01960102
C        1.40164526       3.02170172      -1.83567970
C        2.49653026       2.50130727      -2.51239438
N        3.20209409       3.33314355      -3.29149059
C        4.24097654       2.82029685      -3.98575294
C        4.63738598       1.49779504      -3.91589239
C        3.95320863       0.63198870      -3.05111567
N        4.27584822      -0.74843601      -3.02816972
C        2.81112239       1.12752692      -2.36340743
C        1.97519492       0.32896387      -1.54494756
H       -0.25818021       2.67654532      -0.51072041
H        1.16642647       4.07808836      -1.95331823
H        4.75646166       3.53459927      -4.62161914
H        5.21524626      -0.93364653      -3.37528000
H        4.11622341      -1.19529336      -2.13174224
H        2.17070514      -0.73414002      -1.43344417
C        5.76147692       1.06213909      -4.70343505
C        6.70290308       0.69727722      -5.36300204
Br       8.22510956       0.10732645      -6.42946607
C       -0.88140196      -0.88140196      -0.88140196
C       -0.66460390      -2.24947832      -0.92665657
C       -1.47329022      -3.04201762      -1.74371884
C       -2.49592662      -2.50223046      -2.51207482
N       -3.20485633      -3.33800035      -3.28387155
C       -4.17114233      -2.80990374      -4.06598026
C       -4.49185643      -1.46550594      -4.09371104
C       -3.80701882      -0.58961204      -3.23968214
N       -4.04815787       0.80561753      -3.31304159
C       -2.73648075      -1.10661207      -2.45896392
C       -1.90178900      -0.30895899      -1.63835835
H        0.12742619      -2.71232043      -0.34419128
H       -1.29481002      -4.11500496      -1.78801808
H       -4.69166983      -3.53067216      -4.69033808
H       -4.95408058       1.02215562      -3.72495477
H       -3.91269960       1.29513555      -2.43510825
H       -2.03995198       0.76814144      -1.59819875
C       -5.54242531      -1.01510448      -4.96952127
C       -6.42227674      -0.63789326      -5.70301234
Br      -7.84492210      -0.02797462      -6.88900536
C       -0.88140196       0.88140196       0.88140196
C       -2.16380691       0.46939085       1.20754103
C       -2.96149435       1.28980784       2.00772449
C       -2.50773647       2.50847275       2.49402269
N       -3.35286529       3.23872795       3.23513499
C       -2.92989907       4.44456674       3.67256051
C       -1.66867320       4.95479850       3.42760171
C       -0.74984825       4.17213712       2.71432763
N        0.51714226       4.70548494       2.36723925
C       -1.19160976       2.93015864       2.18028834
C       -0.39503623       2.09792679       1.35614332
H       -2.55961988      -0.47537355       0.84483919
H       -3.97296923       0.97116379       2.25370004
H       -3.66721617       5.00280246       4.24266144
H        0.79237774       5.47765829       2.97159917
H        1.25223896       4.01044484       2.29446643
H        0.60761863       2.40572333       1.07190459
C       -1.32782535       6.25499901       3.94422671
C       -1.04236527       7.34391693       4.37690014
Br      -0.58080047       9.10460511       5.07649650
C        0.88140196      -0.88140196       0.88140196
C        2.23945055      -0.62267968       0.97860856
C        3.03461744      -1.44235147       1.78205777
C        2.50564427      -2.51019912       2.49438851
N        3.35019007      -3.25581923       3.22071893
C        2.84593261      -4.32177223       3.87932148
C        1.50803177      -4.66964886       3.87339278
C        0.60188667      -3.85833673       3.17608960
N       -0.75948876      -4.24101351       3.07405717
C        1.11508986      -2.77192478       2.41504210
C        0.31902280      -1.94386387       1.58621967
H        2.69482766       0.20056014       0.43481800
H        4.10331133      -1.24592117       1.84860056
H        3.58160327      -4.90460312       4.42647368
H       -1.03943858      -4.88182379       3.81449451
H       -1.40313586      -3.46117077       2.99463738
H       -0.74521761      -2.13579216       1.47943473
C        1.08391360      -5.83010317       4.61303429
C        0.72871463      -6.80198366       5.23248405
Br       0.15438794      -8.37343222       6.23408192
