149
Properties=species:S:1:pos:R:3 pbc="F F F"
C        0.00000000       0.00000000       0.00000000
N        2.85914326      -0.70519574      -4.39572757
C        3.02377864       0.64321012      -3.98304160
C        3.70656321       1.55251867      -4.81920903
C        3.77133233       2.87499750      -4.39018189
N        3.20489506       3.35044679      -3.26061790
C        2.48442939       2.50441762      -2.51669397
C        2.33271656       1.13521311      -2.83674134
C        1.50786539       0.33910967      -2.00214775
C        0.88128724       0.88128724      -0.88128724
C        1.05572192       2.21921005      -0.56564556
C        1.85367212       3.01438162      -1.38960642
C        4.33788227       1.16976890      -6.09306972
C        3.54086803       0.78128913      -7.16608620
N        4.00152598       0.44105540      -8.38880584
C        5.31756360       0.52740001      -8.60912497
C        6.24194621       0.91104370      -7.60970883
C        5.73378184       1.16955365      -6.30249268
N        6.59993843       1.62296988      -5.27305669
C        7.61042427       1.01360596      -7.96667421
C        8.04124267       0.72116293      -9.25977589
C        7.12863287       0.32470018     -10.22420998
C        5.77730153       0.23540506      -9.88646510
H        3.58682596      -1.03313191      -5.02686559
H        2.73539050      -1.35794185      -3.62879635
H        4.30284776       3.62506710      -4.97387511
H        1.33811506      -0.70780369      -2.23526806
H        0.57498514       2.65918736       0.30368311
H        1.98007341       4.06856375      -1.15069993
H        2.45733488       0.73517937      -7.06760440
H        6.22006440       1.50734004      -4.33622182
H        7.53734053       1.23812802      -5.32490745
H        8.34559646       1.33957378      -7.23701374
H        7.44551839       0.09293400     -11.23720122
H        5.05763370      -0.06215217     -10.64676124
C        9.43730973       0.83251086      -9.59473618
C       10.60651590       0.92576475      -9.87526543
Br      12.49702338       1.07654840     -10.32885749
N       -2.57195156      -4.58389018       0.60616666
C       -2.77526006      -4.14586631      -0.72890399
C       -3.68877403      -4.83086417      -1.55865272
C       -3.89584842      -4.30860128      -2.83206201
N       -3.31689561      -3.18723724      -3.31182690
C       -2.52064195      -2.49296817      -2.49193084
C       -2.22588790      -2.90673347      -1.17204963
C       -1.40559659      -2.06915235      -0.37437387
C       -0.88128724      -0.88128724      -0.88128724
C       -1.15920419      -0.49784591      -2.18352742
C       -1.97793202      -1.30819366      -2.97153447
C       -4.41221685      -6.04436709      -1.14413694
C       -5.37997791      -5.96113590      -0.14712956
N       -6.12888216      -6.99500196       0.29249690
C       -5.96973167      -8.18183668      -0.30252023
C       -5.02493861      -8.40706938      -1.33069074
C       -4.18197725      -7.31920594      -1.70464497
N       -3.25984949      -7.46142033      -2.77469518
C       -4.97336459      -9.69442626      -1.92291359
C       -5.81183754     -10.72044032      -1.48990363
C       -6.71787558     -10.49333045      -0.46633700
C       -6.78662339      -9.22517635       0.11262804
H       -2.74768773      -5.57665322       0.74378131
H       -1.66817046      -4.32801891       0.98994436
H       -4.56888323      -4.79957367      -3.53333309
H       -1.18609829      -2.33486660       0.65538546
H       -0.75970096       0.42470545      -2.59549388
H       -2.20842242      -1.00108995      -3.98982473
H       -5.59231680      -5.01362304       0.34582118
H       -2.52627363      -6.75632427      -2.78102836
H       -2.85872132      -8.39025102      -2.85140365
H       -4.28642215      -9.89650864      -2.73925320
H       -7.37954406     -11.28042636      -0.11568318
H       -7.50762647      -9.04157192       0.90695561
C       -5.73750010     -12.01878207      -2.10827460
C       -5.67524250     -13.10614328      -2.62616029
Br      -5.57457723     -14.86431440      -3.46353764
N       -4.45740322       2.76909528      -0.67682341
C       -4.02425458       2.96480520       0.66097058
C       -4.85642464       3.64893525       1.57293103
C       -4.40561970       3.74463465       2.88625737
N       -3.25806267       3.20650646       3.35139062
C       -2.51633545       2.48422151       2.50498401
C       -2.85746616       2.30267638       1.14452847
C       -2.02237432       1.47850526       0.34824324
C       -0.88128724       0.88128724       0.88128724
C       -0.54550954       1.08491523       2.21015276
C       -1.36951080       1.88236257       3.00578678
C       -6.14776873       4.25105414       1.20189803
C       -7.21308276       3.42868229       0.84647833
N       -8.44953163       3.86183914       0.52001644
C       -8.69163206       5.17516002       0.58729651
C       -7.70224026       6.12349162       0.93696686
C       -6.38190297       5.64286609       1.18105910
N       -5.36025069       6.53475138       1.60096293
C       -8.08159249       7.48714181       1.02197014
C       -9.38703874       7.89008923       0.74505352
C      -10.34189177       6.95390927       0.38174199
C       -9.98182705       5.60730080       0.31004385
H       -5.10697793       3.47972787      -1.00614615
H       -3.69989514       2.64716982      -1.34081995
H       -4.98548585       4.27911883       3.63718530
H       -2.27066499       1.28616349      -0.69124906
H        0.33975331       0.62729378       2.64294891
H       -1.11453971       2.03159861       4.05319879
H       -7.09620651       2.34638347       0.81752867
H       -4.41898060       6.16927848       1.47536718
H       -5.43543150       7.46412959       1.20081490
H       -7.35952074       8.24059430       1.32206896
H      -11.36423436       7.24892016       0.16249908
H      -10.73430475       4.86931786       0.03862016
C       -9.74472911       9.28185949       0.83796817
C      -10.04429479      10.44746709       0.91578419
Br     -10.52866716      12.33215599       1.04160612
N       -0.24906642      -1.84680112       4.95194039
C        0.96989483      -2.29872834       4.38140719
C        1.76762295      -3.22915667       5.08151129
C        2.91322806      -3.68648269       4.43680097
N        3.29284343      -3.33274106       3.19037526
C        2.48840956      -2.51995796       2.49717344
C        1.29247774      -1.98368041       3.02851285
C        0.49182336      -1.16892970       2.18836975
C        0.88128724      -0.88128724       0.88128724
C        2.06653379      -1.39457455       0.37946920
C        2.85389744      -2.20985377       1.19390894
C        1.44707400      -3.72242603       6.43122086
C        0.33312365      -4.53553507       6.61958465
N       -0.04174769      -5.07306840       7.80006651
C        0.73686748      -4.85266749       8.86455361
C        1.89934083      -4.04850066       8.81485725
C        2.21389022      -3.41596127       7.57597667
N        3.40232173      -2.65081089       7.44283238
C        2.67624268      -3.92033652       9.99412524
C        2.29524388      -4.54769729      11.17924031
C        1.14196895      -5.31477092      11.22080316
C        0.37869869      -5.45927292      10.06120009
H       -0.26042947      -1.87187538       5.96911373
H       -0.54748037      -0.93663679       4.61708858
H        3.58716433      -4.38696991       4.92765574
H       -0.45097425      -0.76810287       2.54845080
H        2.38594735      -1.18141923      -0.63687720
H        3.77794865      -2.62507014       0.79631832
H       -0.31697179      -4.79249931       5.78459114
H        3.39863994      -2.02247720       6.64250911
H        3.66557527      -2.14981765       8.28498308
H        3.59455026      -3.34085853       9.98677520
H        0.82920969      -5.81141403      12.13502988
H       -0.51965870      -6.07303245      10.08886902
C        3.10232123      -4.39964917      12.36258637
C        3.77824851      -4.27565886      13.35363870
Br       4.87116576      -4.07517702      14.95608649
