141
Properties=species:S:1:pos:R:3 pbc="F F F"
C        0.00000000       0.00000000       0.00000000
N        2.85914326      -0.70519574      -4.39572757
C        3.02377864       0.64321012      -3.98304160
C        3.70656321       1.55251867      -4.81920903
C        3.77133233       2.87499750      -4.39018189
N        3.20489506       3.35044679      -3.26061790
C        2.48442939       2.50441762      -2.51669397
C        2.33271656       1.13521311      -2.83674134
C        1.50786539       0.33910967      -2.00214775
C        0.88128724       0.88128724      -0.88128724
C        1.05572192       2.21921005      -0.56564556
C        1.85367212       3.01438162      -1.38960642
C        4.33788227       1.16976890      -6.09306972
C        3.54086803       0.78128913      -7.16608620
N        4.00152598       0.44105540      -8.38880584
C        5.31756360       0.52740001      -8.60912497
C        6.24194621       0.91104370      -7.60970883
C        5.73378184       1.16955365      -6.30249268
N        6.59993843       1.62296988      -5.27305669
C        7.61042427       1.01360596      -7.96667421
C        8.04124267       0.72116293      -9.25977589
C        7.12863287       0.32470018     -10.22420998
C        5.77730153       0.23540506      -9.88646510
Br       9.87299375       0.86726027      -9.69927045
H        3.58682596      -1.03313191      -5.02686559
H        2.73539050      -1.35794185      -3.62879635
H        4.30284776       3.62506710      -4.97387511
H        1.33811506      -0.70780369      -2.23526806
H        0.57498514       2.65918736       0.30368311
H        1.98007341       4.06856375      -1.15069993
H        2.45733488       0.73517937      -7.06760440
H        6.22006440       1.50734004      -4.33622182
H        7.53734053       1.23812802      -5.32490745
H        8.34559646       1.33957378      -7.23701374
H        7.44551839       0.09293400     -11.23720122
H        5.05763370      -0.06215217     -10.64676124
N       -1.94111180      -4.91264121       0.30407793
C       -2.36060488      -4.35645316      -0.93297231
C       -3.28920660      -5.05420896      -1.73487536
C       -3.71405767      -4.42243139      -2.90002266
N       -3.33085638      -3.18969318      -3.29541019
C       -2.52010770      -2.49660467      -2.48882860
C       -2.01516296      -3.01554544      -1.27396261
C       -1.19969560      -2.17566814      -0.47375908
C       -0.88128724      -0.88128724      -0.88128724
C       -1.36398015      -0.39207537      -2.08452200
C       -2.17974478      -1.20600551      -2.87190986
C       -3.81271689      -6.38877325      -1.39923075
C       -4.64898142      -6.54214362      -0.29711833
N       -5.21462460      -7.70574948       0.08898686
C       -4.99977263      -8.78806273      -0.66625323
C       -4.17410978      -8.77404023      -1.81454873
C       -3.51350704      -7.55265716      -2.13966395
N       -2.72485804      -7.45498836      -3.31611860
C       -4.05359158      -9.96941096      -2.56770191
C       -4.70922730     -11.13592532      -2.17702887
C       -5.49749554     -11.14265033      -1.03739716
C       -5.63446092      -9.96689400      -0.29781678
Br      -4.52440454     -12.71088699      -3.20423294
H       -1.98496057      -5.92882387       0.33322479
H       -1.03048242      -4.58877461       0.61301203
H       -4.41119216      -4.91286991      -3.57772791
H       -0.82248851      -2.52560059       0.48250968
H       -1.12660142       0.61428029      -2.41816825
H       -2.57098782      -0.81797526      -3.81037402
H       -4.90227118      -5.69094033       0.33309285
H       -2.08217824      -6.66613087      -3.31531715
H       -2.23468896      -8.31065800      -3.55502904
H       -3.45769713      -9.98923081      -3.47525606
H       -6.01628455     -12.04195628      -0.71741277
H       -6.26463895      -9.96713586       0.58953204
N       -2.56355769       4.58901980      -0.60290240
C       -2.76973393       4.14916902       0.73112741
C       -3.68348155       4.83430282       1.56050655
C       -3.89346000       4.31031896       2.83273276
N       -3.31709690       3.18724577       3.31161709
C       -2.52064020       2.49301464       2.49188613
C       -2.22308242       2.90843438       1.17315421
C       -1.40285565       2.07081676       0.37545041
C       -0.88128724       0.88128724       0.88128724
C       -1.16193042       0.49619264       2.18245446
C       -1.98062207       1.30659005       2.97044803
C       -4.40429101       6.04964305       1.14678682
C       -5.37057054       5.96958909       0.14808374
N       -6.11709098       7.00537470      -0.29107846
C       -5.95698626       8.19098740       0.30611493
C       -5.01349566       8.41302933       1.33617375
C       -4.17289933       7.32320036       1.70972846
N       -3.25227589       7.46219321       2.78149590
C       -4.96080019       9.69934253       1.93056172
C       -5.79691247      10.72741043       1.49785858
C       -6.70165864      10.50342118       0.47246321
C       -6.77151828       9.23631708      -0.10866366
Br      -5.69793674      12.42946492       2.31212281
H       -2.73746669       5.58228699      -0.73919403
H       -1.65957129       4.33230667      -0.98563295
H       -4.56683466       4.80124620       3.53370913
H       -1.18126213       2.33783887      -0.65352158
H       -0.76458549      -0.42766845       2.59357234
H       -2.21325597       0.99821489       3.98786623
H       -5.58364203       5.02321879      -0.34674216
H       -2.51985142       6.75590160       2.78787324
H       -2.84977220       8.39024838       2.86035542
H       -4.27485414       9.89899373       2.74833612
H       -7.36148622      11.29215237       0.12201502
H       -7.49153065       9.05516334      -0.90445121
N        2.11667826       0.39964042       4.83263724
C        2.53669735      -0.83712351       4.27620950
C        3.23369524      -1.76509072       5.07950496
C        3.55409264      -2.98709315       4.49532593
N        3.21965358      -3.35593893       3.24036723
C        2.48322343      -2.50890506       2.51341248
C        2.08487696      -1.23601661       2.98377743
C        1.26566590      -0.43785082       2.14560610
C        0.88128724      -0.88128724       0.88128724
C        1.29656998      -2.12121400       0.42279355
C        2.09068235      -2.92038739       1.24659041
C        3.62680476      -1.50042448       6.47349164
C        2.64613842      -1.38728484       7.45482011
N        2.88522341      -1.17892838       8.76723543
C        4.15865702      -1.12408046       9.17135111
C        5.25370098      -1.22691696       8.28208080
C        4.96677791      -1.34863479       6.89041546
N        6.01930607      -1.52291918       5.95373974
C        6.56302072      -1.20179574       8.82588798
C        6.77087759      -1.05485300      10.19645090
C        5.69001733      -0.93260572      11.05491999
C        4.39698347      -0.97138752      10.53080070
Br       8.52981285      -1.02405109      10.88566054
H        2.69692430       0.72075343       5.60438877
H        1.99716549       1.13918682       4.14826634
H        4.11190530      -3.74063260       5.04925208
H        0.90995160       0.53011667       2.48574449
H        1.00652760      -2.48352558      -0.55956379
H        2.40579168      -3.90029185       0.89325357
H        1.59058120      -1.46949152       7.20004594
H        5.75266683      -1.31743528       4.99352415
H        6.87246155      -1.03064528       6.19726916
H        7.42852270      -1.31389791       8.17976338
H        5.83225287      -0.81758296      12.12581777
H        3.54695606      -0.88972862      11.20555809
