66
Properties=species:S:1:pos:R:3 pbc="F F F"
Cl       0.72455163       6.16104594      -2.06343487
C        2.03969988       5.35975451      -2.85744808
C        2.28821181       4.04617942      -2.72128188
C        1.53434823       3.09634970      -1.91911638
C        1.78202199       1.78202199      -1.78202199
Cl       3.09679383       0.97908275      -2.57510433
H        3.14124314       3.64377931      -3.26518930
H        0.68125733       3.49866569      -1.37528226
C        2.87113824       6.19101743      -3.68889994
C        3.56746787       6.88720013      -4.38524087
Br       4.69337399       8.01286868      -5.51116526
Cl      -0.05301965      -5.70675434      -3.18925844
C       -1.62961751      -5.08230281      -3.54498214
C       -2.07108913      -3.89925599      -3.08532799
C       -1.34142320      -2.96580893      -2.24258218
C       -1.78202199      -1.78202199      -1.78202199
Cl      -3.35834812      -1.15607159      -2.13656119
H       -3.07920809      -3.60175331      -3.36925035
H       -0.33327784      -3.26320495      -1.95872249
C       -2.46108984      -5.91357036      -4.37639541
C       -3.15744792      -6.60975694      -5.07270401
Br      -4.28340004      -7.73543175      -6.19857614
Cl      -5.99155368       0.36762063       2.58985812
C       -5.25628522       1.82180557       3.17881168
C       -3.99142242       2.17289993       2.89135074
C       -3.04768583       1.43186777       2.07026072
C       -1.78202199       1.78202199       1.78202199
Cl      -1.04504594       3.23570466       2.37023030
H       -3.62818728       3.10840812       3.31361635
H       -3.41089484       0.49642212       1.64788831
C       -6.08757697       2.65330463       4.01017401
C       -6.78378381       3.34968510       4.70643997
Br      -7.90949139       4.47567342       5.83224313
Cl       5.79489284      -0.13032444       3.02381515
C        5.13619318      -1.67688384       3.44382544
C        3.92784007      -2.09615975       3.03167328
C        2.99118892      -1.36368356       2.19494184
C        1.78202199      -1.78202199       1.78202199
Cl       1.12163973      -3.32814852       2.20119265
H        3.61002437      -3.08646250       3.35372488
H        3.30899147      -0.37343642       1.87277739
C        5.96749622      -2.50838729       4.27517210
C        6.66371251      -3.20477144       4.97142493
Br       7.78943537      -4.33076570       6.09720686
C       -0.00445707       0.01189536      -1.78238275
H       -0.66409135       0.67374010      -2.43557963
H        0.65740317      -0.63156657      -2.45157240
C       -0.90989263      -0.90692880      -0.91072765
C        0.90977584       0.90977584      -0.90977584
C       -0.00465871       1.77757030       0.00794375
H       -0.66225468       2.44313916      -0.64384735
H        0.64322798       2.43503045       0.67728295
C       -1.78241447       0.00034974      -0.00472694
H       -2.45427497      -0.65498947       0.64260836
H       -2.43311707       0.67328779      -0.65473579
C       -0.91132561       0.90220522       0.91563759
C       -0.01476271      -0.02253852       1.78660255
H       -0.67934791      -0.69751639       2.42135241
H        0.63392994       0.61504881       2.47327442
C        0.01484550      -1.77751727      -0.01636693
H        0.67870853      -2.42144646      -0.68295456
H       -0.62264859      -2.45592969       0.64226336
C        1.78714474       0.01002794       0.00389507
H        2.44202412       0.67113390       0.66197326
H        2.45385902      -0.65136977      -0.64189061
C        0.91606151      -0.90478549       0.90901405
