53
Properties=species:S:1:pos:R:3 pbc="F F F"
C        0.00000000       0.00000000       0.00000000
Cl       4.94892241       4.29534638      -6.49155008
C        6.15408600       5.13211292      -5.56729601
C        6.24965130       5.01838902      -4.23444267
C        5.38867394       4.21245192      -3.43643355
C        4.66353992       3.53416698      -2.76525045
C        3.72913669       2.66291659      -1.91903648
C        2.99496569       1.98229764      -1.27542442
C        2.12765355       1.17824473      -0.51509527
C        0.87132994       0.87132994      -0.87132994
Cl       0.15077698       1.44143755      -2.34219689
Br       7.33226632       6.21713607      -6.53603842
H        7.02401012       5.56519850      -3.70462436
H        2.52293220       0.79031086       0.41939737
Cl      -4.10434235      -5.27222799      -6.35924854
C       -5.78963021      -5.04113039      -6.02273433
C       -6.22768185      -4.20272532      -5.07207582
C       -5.37633232      -3.41861593      -4.24261117
C       -4.65928052      -2.75910115      -3.54457568
C       -3.73084192      -1.92149832      -2.65874952
C       -2.99669855      -1.27792616      -1.97806304
C       -2.12941626      -0.51764010      -1.17393719
C       -0.87132994      -0.87132994      -0.87132994
Cl      -0.14861979      -2.33908256      -1.44670906
Br      -6.98431185      -6.03369579      -7.06743317
H       -7.29505898      -4.09593820      -4.90283579
H       -2.52598811       0.41498555      -0.78284313
Cl      -6.49719879       4.92948208       4.30913801
C       -5.57636453       6.15016367       5.12696673
C       -4.24547121       6.25647545       5.00053633
C       -3.44697122       5.39543243       4.19515576
C       -2.77537028       4.67023939       3.51734768
C       -1.92859183       3.73562010       2.64687782
C       -1.28449987       3.00112660       1.96706127
C       -0.52360383       2.13343342       1.16395629
C       -0.87132994       0.87132994       0.87132994
Cl      -2.33063011       0.14292623       1.46085508
Br      -6.54594583       7.32936323       6.21013175
H       -3.71776435       7.04032126       5.53574737
H        0.40386973       2.53347572       0.76423971
Cl       5.15177166      -6.41680738       4.16723984
C        5.03115910      -5.98105445       5.84128138
C        4.26852888      -4.96441549       6.26953862
C        3.48309083      -4.13857284       5.41589574
C        2.82242410      -3.44363585       4.69689740
C        1.98234865      -2.56266546       3.76607565
C        1.33574134      -1.88678931       3.03015710
C        0.57186945      -1.08834612       2.16077797
C        0.87132994      -0.87132994       0.87132994
Cl       2.26540583      -1.56303172       0.10597387
Br       6.03209170      -7.01510631       7.03824280
H        4.22932473      -4.73436607       7.33014218
H       -0.31604984      -0.62666607       2.58322946
