74
Properties=species:S:1:pos:R:3 pbc="F F F"
Cl       5.85882644       5.20525041      -7.40145410
C        7.06399002       6.04201694      -6.47720004
C        7.15955532       5.92829305      -5.14434669
C        6.29857797       5.12235595      -4.34633758
C        5.57344394       4.44407101      -3.67515448
C        4.63904072       3.57282061      -2.82894051
C        3.90486972       2.89220166      -2.18532844
C        3.03755757       2.08814875      -1.42499929
C        1.78123396       1.78123396      -1.78123396
Cl       1.06068100       2.35134157      -3.25210092
Br       8.24217034       7.12704010      -7.44594244
H        7.93391414       6.47510253      -4.61452838
H        3.43283622       1.70021489      -0.49050665
Cl      -5.69514487      -5.33021756      -7.44016851
C       -7.02642050      -6.00179298      -6.55499353
C       -7.20955461      -5.77704076      -5.24559969
C       -6.34831669      -4.97573443      -4.44322037
C       -5.62293512      -4.30141889      -3.76831541
C       -4.68707223      -3.43673423      -2.91699537
C       -3.95051467      -2.76292245      -2.26896270
C       -3.08038272      -1.96691131      -1.50341159
C       -1.78123396      -1.78123396      -1.78123396
Cl      -1.00251756      -2.51609719      -3.14550873
Br      -8.21253195      -7.07089640      -7.53172453
H       -8.06100065      -6.22268881      -4.73985559
H       -3.51095312      -1.47900257      -0.63360208
Cl      -6.89083570       6.71783142       4.85686383
C       -6.11896376       7.10320352       6.36103973
C       -4.90477880       6.63795381       6.68946245
C       -4.12145917       5.78850273       5.85730959
C       -3.46272753       5.07333342       5.15660847
C       -2.63102844       4.15908626       4.25068713
C       -1.99740888       3.44886701       3.53612394
C       -1.24888224       2.60985206       2.69197131
C       -1.78123396       1.78123396       1.78123396
Cl      -3.49163086       1.64179321       1.53069942
Br      -7.07794244       8.21714928       7.52006116
H       -4.46745234       6.91077902       7.64531369
H       -0.16902817       2.65251557       2.80201403
Cl       6.92088374      -6.68444490       4.86020230
C        6.13122711      -7.10692085       6.34505904
C        4.90440666      -6.66682795       6.66096046
C        4.12078971      -5.81659178       5.82989000
C        3.46180910      -5.10074762       5.13011271
C        2.62995342      -4.18530241       4.22554600
C        1.99638374      -3.47377305       3.51224304
C        1.24791613      -2.63321035       2.66957914
C        1.78123396      -1.78123396       1.78123396
Cl       3.49293555      -1.61005309       1.56113484
Br       7.08951807      -8.22411352       7.50152129
H        4.45622367      -6.96236408       7.60495730
H        0.16727090      -2.69513381       2.76115305
C       -0.00445707       0.01189536      -1.78238275
H       -0.66409135       0.67374010      -2.43557963
H        0.65740317      -0.63156657      -2.45157240
C       -0.90989263      -0.90692880      -0.91072765
C        0.90977584       0.90977584      -0.90977584
C       -0.00465871       1.77757030       0.00794375
H       -0.66225468       2.44313916      -0.64384735
H        0.64322798       2.43503045       0.67728295
C       -1.78241447       0.00034974      -0.00472694
H       -2.45427497      -0.65498947       0.64260836
H       -2.43311707       0.67328779      -0.65473579
C       -0.91132561       0.90220522       0.91563759
C       -0.01476271      -0.02253852       1.78660255
H       -0.67934791      -0.69751639       2.42135241
H        0.63392994       0.61504881       2.47327442
C        0.01484550      -1.77751727      -0.01636693
H        0.67870853      -2.42144646      -0.68295456
H       -0.62264859      -2.45592969       0.64226336
C        1.78714474       0.01002794       0.00389507
H        2.44202412       0.67113390       0.66197326
H        2.45385902      -0.65136977      -0.64189061
C        0.91606151      -0.90478549       0.90901405
