61
Properties=species:S:1:pos:R:3 pbc="F F F"
C        0.00000000       0.00000000       0.00000000
Cl       4.94892241       4.29534638      -6.49155008
C        6.15408600       5.13211292      -5.56729601
C        6.24965130       5.01838902      -4.23444267
C        5.38867394       4.21245192      -3.43643355
C        4.66353992       3.53416698      -2.76525045
C        3.72913669       2.66291659      -1.91903648
C        2.99496569       1.98229764      -1.27542442
C        2.12765355       1.17824473      -0.51509527
C        0.87132994       0.87132994      -0.87132994
Cl       0.15077698       1.44143755      -2.34219689
H        7.02401012       5.56519850      -3.70462436
H        2.52293220       0.79031086       0.41939737
C        7.06044813       5.96681019      -6.31253969
C        7.81952642       6.66586916      -6.93668127
Br       9.04689181       7.79618839      -7.94586541
Cl      -5.48593017      -6.23321259      -4.01667612
C       -5.07110989      -6.08828165      -5.69410338
C       -4.10615010      -5.26561347      -6.13071941
C       -3.32360748      -4.42987189      -5.28408006
C       -2.66546218      -3.72646262      -4.57103255
C       -1.83127382      -2.83203844      -3.64777750
C       -1.19219724      -2.14267945      -2.91781106
C       -0.43722255      -1.32830829      -2.05546270
C       -0.87132994      -0.87132994      -0.87132994
Cl      -2.44832901      -1.23691709      -0.24916532
H       -3.88700901      -5.21373663      -7.19308734
H        0.56169215      -1.06451809      -2.39101975
C       -5.82461419      -6.90706041      -6.60812341
C       -6.45567404      -7.59278763      -7.37361519
Br      -7.47604444      -8.70155053      -8.61135065
Cl      -6.33093090       4.07978394       5.32510404
C       -6.03995915       5.76646068       5.04707509
C       -5.11965850       6.20641202       4.17641247
C       -4.28862291       5.35615103       3.39278548
C       -3.58924301       4.64002397       2.73369037
C       -2.70128746       3.71275339       1.89704891
C       -2.01847175       2.97952034       1.25469565
C       -1.21183054       2.11331333       0.49584967
C       -0.87132994       0.87132994       0.87132994
Cl      -1.39521085       0.17051450       2.36868606
H       -4.97832104       7.27459061       4.04092132
H       -0.85198615       2.49659855      -0.45473901
C       -6.84730365       6.68450170       5.80799267
C       -7.52345466       7.45336105       6.44526114
Br      -8.61673366       8.69654160       7.47567035
Cl       4.52515238      -6.54488908       4.66577741
C        5.06731654      -5.70408530       6.08209309
C        4.75529917      -4.42253350       6.32465033
C        3.95728778      -3.61659899       5.46367265
C        3.28579907      -2.93866367       4.73849461
C        2.42589694      -2.08307241       3.80212041
C        1.75713231      -1.43122779       3.06432764
C        0.96708375      -0.66117365       2.19273615
C        0.87132994      -0.87132994       0.87132994
Cl       1.72839133      -2.14362603       0.06239405
H        5.12171151      -3.94406251       7.22805895
H        0.40502453       0.15282098       2.64164214
C        5.88050280      -6.46105682       6.99823839
C        6.56154630      -7.09502047       7.76551009
Br       7.66273603      -8.12008607       9.00612352
