58
Properties=species:S:1:pos:R:3 pbc="F F F"
C        1.77271404       1.77271404      -1.77271404
C        2.32967153       1.45742857      -2.95360270
C        3.16640525       2.39088584      -3.70251516
C        3.03466013       2.58072438      -5.02595336
Br       4.02309710       3.71525011      -6.11457531
Cl       4.38446242       3.24441760      -2.79303406
Cl       2.10171228      -0.12061550      -3.65879742
H        1.90848606       2.75200850      -1.32550703
H        2.28045248       2.05440646      -5.60127294
C       -1.77271404      -1.77271404      -1.77271404
C       -2.83680724      -2.50311055      -1.40078502
C       -3.59892929      -3.31830108      -2.34257589
C       -4.94208896      -3.33157116      -2.36767775
Br      -6.04743778      -4.31633951      -3.48914524
Cl      -2.67371387      -4.31270381      -3.43549640
Cl      -3.36167362      -2.53956507       0.26134448
H       -1.43817410      -1.74328839      -2.80453910
H       -5.52725265      -2.71711794      -1.69176130
C       -1.77271404       1.77271404       1.77271404
C       -1.77492705       1.85225092       3.11352483
C       -2.67851722       2.73389562       3.84739342
C       -2.26829327       3.50446098       4.86858362
Br      -3.29097700       4.66107412       5.90087141
Cl      -4.34925190       2.72312950       3.34953268
Cl      -0.69765661       0.87128127       4.07095633
H       -2.43911521       2.37898188       1.16790450
H       -1.23124140       3.51824100       5.18664949
C        1.77271404      -1.77271404       1.77271404
C        2.06959893      -3.07121183       1.59989204
C        2.92397140      -3.81214776       2.52368709
C        3.90113861      -4.63411745       2.10608181
Br       5.05617548      -5.64740017       3.14934687
Cl       2.59767811      -3.60104749       4.22318848
Cl       1.41950287      -3.96730381       0.25308753
H        2.17226286      -1.20622280       2.60751593
H        4.11208396      -4.77297888       1.05106905
C       -0.00445707       0.01189536      -1.78238275
H       -0.66409135       0.67374010      -2.43557963
H        0.65740317      -0.63156657      -2.45157240
C       -0.90989263      -0.90692880      -0.91072765
C        0.90977584       0.90977584      -0.90977584
C       -0.00465871       1.77757030       0.00794375
H       -0.66225468       2.44313916      -0.64384735
H        0.64322798       2.43503045       0.67728295
C       -1.78241447       0.00034974      -0.00472694
H       -2.45427497      -0.65498947       0.64260836
H       -2.43311707       0.67328779      -0.65473579
C       -0.91132561       0.90220522       0.91563759
C       -0.01476271      -0.02253852       1.78660255
H       -0.67934791      -0.69751639       2.42135241
H        0.63392994       0.61504881       2.47327442
C        0.01484550      -1.77751727      -0.01636693
H        0.67870853      -2.42144646      -0.68295456
H       -0.62264859      -2.45592969       0.64226336
C        1.78714474       0.01002794       0.00389507
H        2.44202412       0.67113390       0.66197326
H        2.45385902      -0.65136977      -0.64189061
C        0.91606151      -0.90478549       0.90901405
