45
Properties=species:S:1:pos:R:3 pbc="F F F"
C        0.00000000       0.00000000       0.00000000
C        0.86281002       0.86281002      -0.86281002
C        1.41976751       0.54752455      -2.04369867
C        2.25650123       1.48098181      -2.79261114
C        2.12475611       1.67082036      -4.11604933
Cl       3.47455839       2.33451357      -1.88313004
Cl       1.19180826      -1.03051953      -2.74889340
H        0.99858203       1.84210448      -0.41560301
H        1.37054846       1.14450244      -4.69136892
C        2.89114443       2.55047916      -4.96011647
C        3.53299466       3.28719340      -5.66702270
Br       4.57081218       4.47839802      -6.81003028
C       -0.86281002      -0.86281002      -0.86281002
C       -1.85847118      -1.67694349      -0.47557606
C       -2.62850444      -2.48161738      -1.41997237
C       -3.96770438      -2.57534913      -1.36857229
Cl      -1.71605765      -3.35323232      -2.62291204
Cl      -2.27798074      -1.84085589       1.20865450
H       -0.59409536      -0.75375287      -1.90844129
H       -4.54489492      -2.03762312      -0.62390178
C       -4.83087852      -3.33850356      -2.23235798
C       -5.55378686      -3.97764541      -2.95577849
Br      -6.72266851      -5.01108371      -4.12548827
C       -0.86281002       0.86281002       0.86281002
C       -0.93860195       0.86856158       2.20382720
C       -1.83353002       1.75960046       2.93696370
C       -1.44166113       2.44774569       4.02221898
Cl      -3.47055673       1.87335688       2.34828839
Cl       0.02566020      -0.22449556       3.16033790
H       -1.45860580       1.53910610       0.25857762
H       -0.42566778       2.38371344       4.39703860
C       -2.22933103       3.34378822       4.82862082
C       -2.88900457       4.09422383       5.50398236
Br      -3.95564089       5.30761474       6.59598485
C        0.86281002      -0.86281002       0.86281002
C        1.11753237      -2.17381169       0.71964667
C        1.97715407      -2.91287082       1.64006929
C        2.91797016      -3.77456862       1.21908702
Cl       1.70678711      -2.64416017       3.34125473
Cl       0.40317930      -3.08840021      -0.58139738
H        1.30250463      -0.28476354       1.66902135
H        3.09396883      -3.94943197       0.16301901
C        3.81412040      -4.56277292       2.02484674
C        4.56464622      -5.22289402       2.69967051
Br       5.77818300      -6.29025401       3.79080348
