82
Properties=species:S:1:pos:R:3 pbc="F F F"
C        1.77204558       1.77204558      -1.77204558
C        1.44591271       2.34394522      -2.93769726
C        2.37472220       3.13511500      -3.63641088
C        3.16095079       3.80483011      -4.22785665
C        4.06465137       4.57462494      -4.90768492
C        4.85087996       5.24434005      -5.49913069
C        5.77968931       6.03551928      -6.19783378
C        6.84376856       6.55578996      -5.57393320
Cl       5.46129091       6.28372874      -7.87804021
Cl      -0.10933046       2.16530422      -3.66938363
H        2.75844024       1.90457801      -1.33978325
H        7.01435928       6.38027649      -4.51681027
C        7.87806579       7.37963089      -6.14412209
C        8.74428972       8.06959767      -6.62165528
Br      10.14490054       9.18521560      -7.39378607
C       -1.77204558      -1.77204558      -1.77204558
C       -3.05433745      -2.10077399      -1.57244375
C       -3.73561931      -2.92828544      -2.48234331
C       -4.31231021      -3.62876147      -3.25256585
C       -4.97518534      -4.43390020      -4.13787569
C       -5.55187624      -5.13437623      -4.90809823
C       -6.23315689      -5.96187771      -5.81800776
C       -5.77918867      -6.12787375      -7.06642930
Cl      -7.66276678      -6.73253036      -5.22776272
Cl      -3.96477371      -1.54947556      -0.21110812
H       -1.22895574      -2.13563097      -2.63821478
H       -4.87725298      -5.62882625      -7.40536682
C       -6.35714970      -6.93551135      -8.10915772
C       -6.84119205      -7.61190785      -8.98244277
Br      -7.62384760      -8.70558377     -10.39447084
C       -1.77204558       1.77204558       1.77204558
C       -1.39104895       2.52570252       2.81080372
C       -2.32843541       3.28882421       3.52898845
C       -3.12192500       3.93479575       4.13691679
C       -4.03397202       4.67730096       4.83568824
C       -4.82746161       5.32327251       5.44361658
C       -5.76485038       6.08640214       6.16178984
C       -6.95293824       6.39373358       5.62681991
Cl      -5.28949148       6.58792694       7.74564145
Cl       0.24831382       2.62569984       3.34797137
H       -2.81063405       1.73172820       1.46043925
H       -7.22020379       6.06258209       4.62866017
C       -8.01334183       7.15996600       6.22851094
C       -8.90142983       7.80168566       6.73242718
Br     -10.33739303       8.83929206       7.54721712
C        1.77204558      -1.77204558       1.77204558
C        3.06459142      -2.07068430       1.59227947
C        3.74427325      -2.90283817       2.49913664
C        4.31960962      -3.60724415       3.26678376
C        4.98092776      -4.41689975       4.14913372
C        5.55626413      -5.12130573       4.91678084
C        6.23594434      -5.95344987       5.82364815
C        5.76041486      -6.15421000       7.05886686
Cl       7.69271248      -6.68282377       5.24752362
Cl       3.99074922      -1.47325774       0.26135044
H        1.21920129      -2.16424589       2.61935432
H        4.84175504      -5.68052240       7.38916860
C        6.33373244      -6.97131344       8.09677289
C        6.81388591      -7.65563757       8.96601919
Br       7.59025346      -8.76213182      10.37151693
C       -0.00445707       0.01189536      -1.78238275
H       -0.66409135       0.67374010      -2.43557963
H        0.65740317      -0.63156657      -2.45157240
C       -0.90989263      -0.90692880      -0.91072765
C        0.90977584       0.90977584      -0.90977584
C       -0.00465871       1.77757030       0.00794375
H       -0.66225468       2.44313916      -0.64384735
H        0.64322798       2.43503045       0.67728295
C       -1.78241447       0.00034974      -0.00472694
H       -2.45427497      -0.65498947       0.64260836
H       -2.43311707       0.67328779      -0.65473579
C       -0.91132561       0.90220522       0.91563759
C       -0.01476271      -0.02253852       1.78660255
H       -0.67934791      -0.69751639       2.42135241
H        0.63392994       0.61504881       2.47327442
C        0.01484550      -1.77751727      -0.01636693
H        0.67870853      -2.42144646      -0.68295456
H       -0.62264859      -2.45592969       0.64226336
C        1.78714474       0.01002794       0.00389507
H        2.44202412       0.67113390       0.66197326
H        2.45385902      -0.65136977      -0.64189061
C        0.91606151      -0.90478549       0.90901405
