189
Properties=species:S:1:pos:R:3 pbc="F F F"
C        0.00000000       0.00000000       0.00000000
C        0.85870049       0.85870049      -0.85870049
H        1.56963785       0.29482885      -1.45054713
C        1.10222655       2.25442988      -0.57967962
C        2.36096416       2.92466782      -0.87757291
C        2.67069703       3.46776617      -2.06927716
C        1.78206634       3.52317065      -3.23236703
C        1.79473109       2.49775300      -4.18442984
C        0.94837067       2.56130149      -5.29461408
C        0.09141369       3.64966335      -5.45141247
C        0.07258588       4.67550854      -4.50840693
C        0.91923858       4.61277415      -3.39932143
Cl      -0.94793383       3.72919061      -6.82007504
C        3.33597775       2.94102391       0.16735202
C        4.15373943       2.92066178       1.04523736
C        5.19594928       2.83028379       2.16561409
C        6.00191241       2.66887765       3.04147007
C        6.93669921       2.37001342       4.07912002
C        7.39812852       1.11025988       4.17493093
C        8.32374251       0.60429042       5.19018968
C        9.70667954       0.72160437       5.01342121
C       10.58182541       0.18741013       5.96278541
C       10.07271923      -0.45890411       7.08819943
C        8.69642555      -0.57021752       7.27698598
C        7.82143492      -0.03899323       6.32695707
Cl      11.15033803      -1.13407255       8.24694451
C        7.27751050       3.43348133       5.01279295
C        6.65455600       3.58514945       6.30615874
H        5.87303110       2.91016446       6.63138212
Br       7.07563030       4.91669273       7.51368267
C        8.37700742       4.36390013       4.58679621
C       -0.02869608       3.13306912      -0.12496793
H        3.64359079       3.92937687      -2.22613919
H        2.46193237       1.64658777      -4.07050489
H        0.96345663       1.76261028      -6.03139958
H       -0.59482024       5.52435707      -4.63000833
H        0.89985486       5.41717302      -2.66724455
H        7.07890448       0.35678997       3.45645312
H       10.11095476       1.21598169       4.13307324
H       11.65512583       0.27151293       5.81503006
H        8.29899959      -1.07425832       8.15370941
H        6.74850749      -0.13814820       6.47535175
H        8.75405886       4.12513893       3.58615387
H        9.22690760       4.29739805       5.27503898
H        8.02461072       5.40041216       4.56150213
H       -0.65918371       2.64845916       0.62558473
H       -0.66310063       3.40256916      -0.97641713
H        0.33950868       4.06145966       0.32575694
C       -0.85870049      -0.85870049      -0.85870049
H       -0.51683616      -0.91290200      -1.88527566
C       -2.23544358      -1.15839129      -0.54250118
C       -3.26931173      -1.34144817      -1.55244499
C       -3.52379978      -2.50493997      -2.17900061
C       -2.84875497      -3.77710395      -1.91174509
C       -1.70535312      -4.13878627      -2.63277453
C       -1.07091364      -5.35719437      -2.37617823
C       -1.58064278      -6.21193252      -1.39991421
C       -2.71911421      -5.85993695      -0.67745020
C       -3.35405848      -4.64273611      -0.93453957
Cl      -0.80127002      -7.71335908      -1.08670273
C       -4.00910767      -0.17640221      -1.92413976
C       -4.60095388       0.81685373      -2.24506370
C       -5.30074411       2.11209743      -2.67197229
C       -5.76658737       3.16164594      -3.02437856
C       -6.21795341       4.44616938      -3.45580857
C       -5.37223147       5.20951675      -4.17074276
C       -5.63653239       6.56249509      -4.66380596
C       -6.28788388       6.75933299      -5.88631180
C       -6.48714037       8.05386061      -6.37317036
C       -6.03869483       9.14829644      -5.63521729
C       -5.39881823       8.96100925      -4.41141307
C       -5.19690499       7.66725293      -3.92583256
Cl      -6.26626813      10.74114305      -6.24419589
C       -7.54244070       4.87749830      -3.03325649
C       -7.77333581       5.73481987      -1.89503078
H       -6.95112364       6.08082144      -1.28151124
Br      -9.44033285       6.30607554      -1.34438304
C       -8.69190746       4.42598295      -3.88818683
C       -2.62329956      -1.47929000       0.87324858
H       -4.29592642      -2.55927417      -2.94390626
H       -1.30290291      -3.47861132      -3.39751080
H       -0.18397436      -5.63333330      -2.94015882
H       -3.11728660      -6.52570836       0.08344981
H       -4.24263608      -4.37433724      -0.36729911
H       -4.38354226       4.83292165      -4.42862072
H       -6.63175432       5.90983255      -6.47194143
H       -6.98368761       8.20064178      -7.32856287
H       -5.04864491       9.81360169      -3.83598864
H       -4.68786830       7.52767970      -2.97481893
H       -8.36403683       3.78533046      -4.71433756
H       -9.20373254       5.28687403      -4.33240816
H       -9.41506538       3.85142426      -3.29987963
H       -2.15182598      -0.80994269       1.59807795
H       -2.33138624      -2.50564275       1.12114333
H       -3.70530106      -1.39308710       1.02317676
C       -0.85870049       0.85870049       0.85870049
H       -0.50395217       0.93130915       1.87975250
C       -2.24345548       1.13572483       0.55715574
C       -3.26615365       1.31861174       1.57843950
C       -3.52795905       2.48696411       2.19281721
C       -2.87377482       3.76428420       1.89954499
C       -1.72585610       4.15087162       2.60018620
C       -1.11140200       5.37404844       2.31883580
C       -1.64558828       6.20865873       1.33824250
C       -2.78872738       5.83180263       0.63597134
C       -3.40369591       4.60983279       0.91780545
Cl      -0.89080296       7.71596959       0.99455928
C       -3.98513232       0.14893797       1.97557936
C       -4.55918404      -0.84769108       2.31767089
C       -5.23567046      -2.14626059       2.77120910
C       -5.68256233      -3.19706820       3.14382585
C       -6.11075378      -4.48154847       3.59838729
C       -5.24535102      -5.22383670       4.31194315
C       -5.48476549      -6.57343498       4.82651274
C       -6.11705396      -6.76240780       6.06021653
C       -6.29230766      -8.05278306       6.56692552
C       -5.83899634      -9.15101194       5.83763129
C       -5.21806902      -8.97175854       4.60291156
C       -5.04013162      -7.68210179       4.09745479
Cl      -6.03690641     -10.73838076       6.47079532
C       -7.43480819      -4.93615221       3.19954290
C       -7.66925007      -5.81176558       2.07606223
H       -6.85068782      -6.15503481       1.45616043
Br      -9.33556979      -6.41256397       1.55563454
C       -8.57877453      -4.48848847       4.06382528
C       -2.65443737       1.43228099      -0.85737738
H       -4.29048934       2.54132997       2.96728755
H       -1.30437494       3.50650389       3.36814620
H       -0.22083700       5.66957026       2.86705923
H       -3.20595596       6.48187461      -0.12828541
H       -4.29604689       4.32198379       0.36624174
H       -4.25848919      -4.83065453       4.55140666
H       -6.46453103      -5.90973380       6.63906597
H       -6.77405451      -8.19325255       7.53080675
H       -4.86411250      -9.82730219       4.03422156
H       -4.54574190      -7.54861340       3.13787904
H       -8.24860672      -3.83242719       4.87686440
H       -9.07296415      -5.35004542       4.52634794
H       -9.31739896      -3.93161213       3.47773391
H       -2.18366739       0.75954816      -1.57952483
H       -2.37973849       2.45899092      -1.12284376
H       -3.73707769       1.32965321      -0.99151951
C        0.85870049      -0.85870049       0.85870049
H        1.39573841      -0.30203630       1.61723912
C        1.34065363      -2.15436036       0.44132205
C        2.63591046      -2.69344313       0.83385130
C        2.86657141      -3.36292048       1.97824847
C        1.85355150      -3.70448748       2.97956504
C        1.59098466      -2.83879592       4.04713335
C        0.62744022      -3.17504362       5.00180240
C       -0.07142871      -4.37592734       4.88799088
C        0.18399106      -5.24417736       3.82833294
C        1.14780128      -4.90885328       2.87467960
Cl      -1.25514734      -4.79109753       6.06538163
C        3.72904467      -2.42864043      -0.04803545
C        4.64100864      -2.17290974      -0.78475453
C        5.79391021      -1.78359138      -1.71688262
C        6.67310533      -1.39139273      -2.43517807
C        7.67906340      -0.82379020      -3.27526100
C        7.95681860       0.48508798      -3.13827315
C        8.92014971       1.25124573      -3.93106073
C       10.27071302       1.28828800      -3.56756232
C       11.17187501       2.06582992      -4.29959497
C       10.72186276       2.80096076      -5.39528632
C        9.38025348       2.76067582      -5.77035562
C        8.47871708       1.98596721      -5.03726526
Cl      11.82761278       3.77391456      -6.28437725
C        8.29148332      -1.68394400      -4.27722844
C        7.86996624      -1.72096238      -5.65738190
H        7.04542486      -1.11163864      -6.00525007
Br       8.63618880      -2.79295428      -6.95050273
C        9.45271692      -2.51767777      -3.81628335
C        0.42087757      -3.09415645      -0.28569304
H        3.86877637      -3.71336700       2.21696349
H        2.13348800      -1.90130913       4.14422790
H        0.42866316      -2.49938065       5.82942268
H       -0.36004681      -6.18055870       3.73903327
H        1.34260472      -5.59136565       2.05030206
H        7.43933198       1.07602625      -2.38406441
H       10.62698225       0.72499335      -2.70812570
H       12.21765693       2.09981929      -4.00622893
H        9.02879786       3.33379032      -6.62397568
H        7.43114871       1.96687914      -5.32926203
H        9.65794418      -2.38351515      -2.74841540
H       10.36489067      -2.24071791      -4.35634191
H        9.25781606      -3.58314585      -3.97744116
H       -0.17247295      -2.58887411      -1.05271044
H       -0.27091403      -3.56659555       0.42020413
H        0.97783425      -3.89003497      -0.79265782
