197
Properties=species:S:1:pos:R:3 pbc="F F F"
C        0.00000000       0.00000000       0.00000000
C        0.85870049       0.85870049      -0.85870049
H        1.56963785       0.29482885      -1.45054713
C        1.10222655       2.25442988      -0.57967962
C        2.36096416       2.92466782      -0.87757291
C        2.67069703       3.46776617      -2.06927716
C        1.78206634       3.52317065      -3.23236703
C        1.79473109       2.49775300      -4.18442984
C        0.94837067       2.56130149      -5.29461408
C        0.09141369       3.64966335      -5.45141247
C        0.07258588       4.67550854      -4.50840693
C        0.91923858       4.61277415      -3.39932143
Cl      -0.94793383       3.72919061      -6.82007504
C        3.33597775       2.94102391       0.16735202
C        4.15373943       2.92066178       1.04523736
C        5.19594928       2.83028379       2.16561409
C        6.00191241       2.66887765       3.04147007
C        6.93669921       2.37001342       4.07912002
C        7.39812852       1.11025988       4.17493093
C        8.32374251       0.60429042       5.19018968
C        9.70667954       0.72160437       5.01342121
C       10.58182541       0.18741013       5.96278541
C       10.07271923      -0.45890411       7.08819943
C        8.69642555      -0.57021752       7.27698598
C        7.82143492      -0.03899323       6.32695707
Cl      11.15033803      -1.13407255       8.24694451
C        7.27751050       3.43348133       5.01279295
C        6.65455600       3.58514945       6.30615874
H        5.87303110       2.91016446       6.63138212
C        8.37700742       4.36390013       4.58679621
C       -0.02869608       3.13306912      -0.12496793
H        3.64359079       3.92937687      -2.22613919
H        2.46193237       1.64658777      -4.07050489
H        0.96345663       1.76261028      -6.03139958
H       -0.59482024       5.52435707      -4.63000833
H        0.89985486       5.41717302      -2.66724455
H        7.07890448       0.35678997       3.45645312
H       10.11095476       1.21598169       4.13307324
H       11.65512583       0.27151293       5.81503006
H        8.29899959      -1.07425832       8.15370941
H        6.74850749      -0.13814820       6.47535175
H        8.75405886       4.12513893       3.58615387
H        9.22690760       4.29739805       5.27503898
H        8.02461072       5.40041216       4.56150213
H       -0.65918371       2.64845916       0.62558473
H       -0.66310063       3.40256916      -0.97641713
H        0.33950868       4.06145966       0.32575694
C        6.98298716       4.62373171       7.24800791
C        7.25804825       5.49354435       8.03680660
Br       7.70279877       6.89995782       9.31222736
C       -0.85870049      -0.85870049      -0.85870049
H       -0.54347081      -0.87651315      -1.89502986
C       -2.21798234      -1.20382922      -0.51452449
C       -3.27365029      -1.38812610      -1.50142850
C       -3.51423783      -2.54115071      -2.15235183
C       -2.79886815      -3.80116214      -1.93757373
C       -1.66628151      -4.11257563      -2.69805679
C       -0.99319529      -5.31968880      -2.49140216
C       -1.45355127      -6.21338712      -1.52555112
C       -2.58091656      -5.91155768      -0.76402711
C       -3.25448872      -4.70565157      -0.97119386
Cl      -0.62663393      -7.70088232      -1.27381557
C       -4.05372882      -0.23415523      -1.82176559
C       -4.68005502       0.75081840      -2.09992723
C       -5.42508794       2.03743479      -2.47296582
C       -5.92783977       3.08290603      -2.78438625
C       -6.42446593       4.36566139      -3.16878806
C       -5.61886424       5.17024467      -3.88483790
C       -5.93203554       6.52810156      -4.33390927
C       -6.62124423       6.73940211      -5.53302058
C       -6.86770731       8.04044910      -5.97919191
C       -6.42846020       9.12678422      -5.22393970
C       -5.75093499       8.92468232      -4.02296937
C       -5.50187205       7.62451180      -3.57812437
Cl      -6.71440024      10.72839142      -5.78331216
C       -7.74793473       4.74963940      -2.69990355
C       -7.97043872       5.57005889      -1.53316689
H       -7.14131757       5.92190744      -0.93240330
C       -8.90783461       4.28985348      -3.53613021
C       -2.55872738      -1.57236288       0.90174928
H       -4.30510729      -2.59618903      -2.89781053
H       -1.30226187      -3.42178958      -3.45497358
H       -0.11488871      -5.55671387      -3.08586390
H       -2.94061775      -6.60771904      -0.01120837
H       -4.13413989      -4.47649143      -0.37364111
H       -4.62793471       4.82751639      -4.17882301
H       -6.95832559       5.89664214      -6.13217975
H       -7.39366305       8.19887631      -6.91682196
H       -5.40791341       9.77097215      -3.43409060
H       -4.96374464       7.47374137      -2.64500426
H       -8.58568397       3.68034215      -4.38770211
H       -9.45404592       5.14797866      -3.94319941
H       -9.59937262       3.68058625      -2.94473437
H       -2.08560866      -0.90984179       1.63175973
H       -2.23322531      -2.59661097       1.11395061
H       -3.63816604      -1.51949958       1.08245423
C       -9.26985593       5.96874212      -1.05759715
C      -10.35811785       6.30263933      -0.65930748
Br     -12.11774533       6.84252286      -0.01530678
C       -0.85870049       0.85870049       0.85870049
H       -0.43713659       1.03731882       1.84055841
C       -2.27930619       1.00917375       0.64785611
C       -3.23588606       1.19681538       1.73050344
C       -3.54341699       2.38771618       2.27660720
C       -3.01516996       3.68230324       1.84013082
C       -1.85319856       4.20576351       2.41795186
C       -1.35931109       5.44455847       2.00041668
C       -2.02785428       6.15798306       1.00665216
C       -3.18596018       5.64441840       0.42612278
C       -3.68041893       4.40682398       0.84409125
Cl      -1.42140750       7.68460293       0.49532140
C       -3.82945190       0.01270738       2.26749036
C       -4.29659741      -0.99311118       2.72567762
C       -4.83363304      -2.29781644       3.32480238
C       -5.16785325      -3.34580250       3.80726924
C       -5.45906886      -4.61827942       4.38680317
C       -4.48801764      -5.23677541       5.08221524
C       -4.58203127      -6.55546942       5.71128140
C       -5.10562231      -6.69226007       7.00150046
C       -5.14109114      -7.94800656       7.61336555
C       -4.65708904      -9.06426058       6.93278722
C       -4.14410115      -8.93804316       5.64316406
C       -4.10581602      -7.68271621       5.03238480
Cl      -4.68242552     -10.60696360       7.69385905
C       -6.76874320      -5.19843252       4.12788820
C       -7.01486173      -6.17468998       3.09337497
H       -6.21926392      -6.50504831       2.43759782
C       -7.87823730      -4.76878800       5.04466205
C       -2.81463472       1.16244562      -0.74773936
H       -4.24923407       2.44712698       3.10274581
H       -1.32724330       3.65647829       3.19530345
H       -0.45715681       5.84666034       2.45364934
H       -3.70786673       6.19997752      -0.34829910
H       -4.58519790       4.01195660       0.38711793
H       -3.52038288      -4.75489043       5.21374887
H       -5.47603195      -5.82426902       7.54210027
H       -5.53855033      -8.04685291       8.61991128
H       -3.76628109      -9.80761277       5.11236354
H       -3.69492218      -7.58954734       4.02963271
H       -7.54231558      -4.02829610       5.77902445
H       -8.26783579      -5.62498617       5.60641705
H       -8.69931214      -4.31531633       4.47952494
H       -2.34630463       0.47106119      -1.45367510
H       -2.64188131       2.18234260      -1.10833825
H       -3.89270944       0.97073889      -0.78823694
C       -8.29973790      -6.76755044       2.82652350
C       -9.37582169      -7.26407108       2.60303539
Br     -11.11575817      -8.06690295       2.24167402
C        0.85870049      -0.85870049       0.85870049
H        1.27514108      -0.33136945       1.70850329
C        1.49285750      -2.06419659       0.37928195
C        2.79454786      -2.52532346       0.84333357
C        2.98831243      -3.27631268       1.94311526
C        1.92997997      -3.79448402       2.81314003
C        1.49815696      -3.05735757       3.92139940
C        0.49237826      -3.56170361       4.75020437
C       -0.07950619      -4.80186474       4.47013096
C        0.34479194      -5.54287313       3.36883629
C        1.35083383      -5.03951524       2.54098509
Cl      -1.31530469      -5.42395353       5.49268299
C        3.92933873      -2.08760099       0.09270992
C        4.87290061      -1.68779483      -0.53153159
C        6.05967087      -1.11679181      -1.31584370
C        6.95646143      -0.58610782      -1.91324926
C        7.97304373       0.14069423      -2.60475689
C        8.11515488       1.45001171      -2.33168570
C        9.06695404       2.36575882      -2.96335196
C       10.37237730       2.48356632      -2.47394829
C       11.25627627       3.39966609      -3.05016006
C       10.83465905       4.19259533      -4.11644804
C        9.53940430       4.07340920      -4.61677306
C        8.65478034       3.15998989      -4.03930583
Cl      11.91669262       5.33456295      -4.81280871
C        8.74583355      -0.56728324      -3.61491790
C        8.44852029      -0.51145362      -5.02642719
H        7.60345619       0.05523812      -5.39640464
C        9.93616421      -1.33847593      -3.12052881
C        0.72969665      -3.00709199      -0.50744766
H        3.99482191      -3.56092476       2.24336018
H        1.94085123      -2.09023738       4.14793642
H        0.16192628      -2.98533939       5.61020081
H       -0.10019050      -6.50975244       3.14998322
H        1.67770531      -5.62331391       1.68325320
H        7.48266297       1.92204751      -1.58137413
H       10.70510802       1.87510934      -1.63613548
H       12.26559912       3.49504508      -2.65894533
H        9.21004041       4.69147598      -5.44753257
H        7.64218242       3.07911397      -4.42806091
H       10.03643824      -1.28727953      -2.03067384
H       10.86123096      -0.93588909      -3.54785338
H        9.85565585      -2.39702874      -3.38916384
H        0.15931210      -2.48494940      -1.28057077
H        0.02733464      -3.60028210       0.08826892
H        1.39938028      -3.70207895      -1.02624783
C        9.20498008      -1.19624402      -6.04251315
C        9.83851516      -1.76975599      -6.89348514
Br      10.86288779      -2.69707633      -8.26943488
