98
Properties=species:S:1:pos:R:3 pbc="F F F"
C        1.79181138       1.79181138      -1.79181138
C        1.58559903       3.16531756      -1.81606818
C        2.39061040       3.96546190      -2.62708154
C        3.41451973       3.40254299      -3.40725710
Br       4.25958011       4.61349439      -4.60918781
C        3.64142159       2.01472332      -3.36186189
C        2.80448534       1.21402878      -2.55823320
N        4.69088417       1.35910675      -4.06951602
C        5.96580234       1.83311162      -4.30653035
C        6.68568098       0.88226082      -4.99694424
C        5.84536010      -0.23583163      -5.16502892
C        4.64123446       0.06880709      -4.56947118
H        0.79698937       3.62207708      -1.22323012
H        2.19428346       5.03574391      -2.66310456
H        2.96236006       0.14014123      -2.48190904
H        6.29146578       2.79064284      -3.92875016
H        7.71447507       0.98065793      -5.31984717
H        6.08901774      -1.16770117      -5.65952735
H        3.73712157      -0.52089370      -4.50700712
C       -1.79181138      -1.79181138      -1.79181138
C       -2.18368049      -3.04497637      -1.33832791
C       -2.98495390      -3.84830918      -2.14989077
C       -3.41154271      -3.40114006      -3.41163706
Br      -4.30943247      -4.71162199      -4.46120784
C       -3.03748002      -2.12091263      -3.85961414
C       -2.20635277      -1.32921999      -3.04117455
N       -3.46767436      -1.55612501      -5.09570756
C       -4.69944733      -1.70448672      -5.70151025
C       -4.72628049      -0.97086503      -6.86774052
C       -3.48460673      -0.31426966      -6.97568101
C       -2.74201176      -0.66704233      -5.87045863
H       -1.86259138      -3.41277643      -0.36692875
H       -3.25473519      -4.84206832      -1.79632843
H       -1.91326985      -0.32629037      -3.34485011
H       -5.48899911      -2.27988134      -5.24197832
H       -5.56382157      -0.90079072      -7.55036788
H       -3.16395236       0.35075230      -7.76764386
H       -1.73222975      -0.38745458      -5.60355067
C       -1.79181138       1.79181138       1.79181138
C       -2.46805447       1.23106564       2.86786466
C       -3.27607704       2.04008280       3.66699400
C       -3.40312099       3.41481362       3.40638522
Br      -4.71165875       4.30949318       4.46111037
C       -2.69666575       3.98816498       2.33317607
C       -1.90389512       3.15525774       1.51759445
N       -2.71420886       5.37990522       2.02539287
C       -2.75543077       6.43476870       2.91524484
C       -2.72494369       7.62261943       2.21732292
C       -2.62491299       7.29994661       0.84969780
C       -2.59522158       5.92582603       0.75846511
H       -2.38714869       0.16907237       3.08607550
H       -3.82789996       1.58013793       4.48509404
H       -1.32716745       3.56592052       0.69132236
H       -2.75484815       6.27326546       3.98274517
H       -2.74727140       8.61273496       2.65497381
H       -2.57244998       7.99075107       0.01764287
H       -2.54608955       5.29657305      -0.11942761
C        1.79181138      -1.79181138       1.79181138
C        2.49911023      -1.22396517       2.84390937
C        3.30694283      -2.03314992       3.64306109
C        3.40296301      -3.41474773       3.40660909
Br       4.71443088      -4.31437094       4.45346048
C        2.66527969      -3.99455972       2.35816738
C        1.87282796      -3.16209786       1.54182149
N        2.65060960      -5.39194394       2.07695341
C        2.68902391      -6.43041275       2.98600764
C        2.62268198      -7.63042473       2.31177932
C        2.50245679      -7.33177094       0.94032966
C        2.49696989      -5.95930143       0.82324140
H        2.44248942      -0.15667994       3.04312720
H        3.88299801      -1.56854440       4.44158952
H        1.27265046      -3.57711415       0.73464572
H        2.71203898      -6.24879766       4.05002214
H        2.63472762      -8.61234511       2.76790744
H        2.42095164      -8.03702745       0.12286483
H        2.44284102      -5.34591025      -0.06551628
C       -0.00445707       0.01189536      -1.78238275
H       -0.66409135       0.67374010      -2.43557963
H        0.65740317      -0.63156657      -2.45157240
C       -0.90989263      -0.90692880      -0.91072765
C        0.90977584       0.90977584      -0.90977584
C       -0.00465871       1.77757030       0.00794375
H       -0.66225468       2.44313916      -0.64384735
H        0.64322798       2.43503045       0.67728295
C       -1.78241447       0.00034974      -0.00472694
H       -2.45427497      -0.65498947       0.64260836
H       -2.43311707       0.67328779      -0.65473579
C       -0.91132561       0.90220522       0.91563759
C       -0.01476271      -0.02253852       1.78660255
H       -0.67934791      -0.69751639       2.42135241
H        0.63392994       0.61504881       2.47327442
C        0.01484550      -1.77751727      -0.01636693
H        0.67870853      -2.42144646      -0.68295456
H       -0.62264859      -2.45592969       0.64226336
C        1.78714474       0.01002794       0.00389507
H        2.44202412       0.67113390       0.66197326
H        2.45385902      -0.65136977      -0.64189061
C        0.91606151      -0.90478549       0.90901405
