178
Properties=species:S:1:pos:R:3 pbc="F F F"
C        1.79923937       1.79923937      -1.79923937
C        1.50225250       3.16647806      -1.75063197
C        2.12371319       4.06907190      -2.61818653
C        3.04154042       3.63605452      -3.58496200
C        3.32962582       2.25674523      -3.62360955
C        2.74449857       1.33461439      -2.72498523
N        3.18054287      -0.02254098      -2.79734555
C        3.60778743      -0.67664582      -3.94115469
C        3.97988874      -1.96323423      -3.62041173
C        3.81897092      -2.10700849      -2.22891344
C        3.35488464      -0.90205830      -1.74670465
C        3.68528484       4.59165319      -4.51903456
C        2.98525391       5.69004350      -5.03720458
C        3.59390470       6.59214248      -5.91552166
C        4.92486237       6.42310548      -6.31615106
C        5.65849574       5.33975436      -5.81301940
C        5.02665126       4.44055191      -4.92203959
N        7.01969494       5.07892757      -6.14794016
C        7.59166759       3.82156672      -6.25461706
C        8.91961781       3.95208456      -6.59544990
C        9.19716924       5.33151293      -6.65901556
C        8.02842820       5.99723567      -6.35834139
H        0.76429290       3.54596190      -1.04646749
H        1.87139507       5.12391309      -2.52502318
H        4.05776938       1.90542701      -4.35239330
H        3.56990837      -0.19426444      -4.90775304
H        4.33482265      -2.71197234      -4.31722230
H        4.04061984      -2.98210610      -1.63157391
H        3.18463819      -0.60010759      -0.72335342
H        1.93883406       5.85028266      -4.78398035
H        2.99898876       7.41429872      -6.30932898
H        5.60729290       3.62938819      -4.48434423
H        6.99796563       2.92583381      -6.13440667
H        9.61028756       3.13758613      -6.77237141
H       10.14999764       5.79646592      -6.87762191
H        7.85956008       7.05749631      -6.23847182
C        5.36664838       7.32800930      -7.34550727
C        5.73664416       8.08586626      -8.20759308
Br       6.33489605       9.31125685      -9.60151294
C       -1.79923937      -1.79923937      -1.79923937
C       -2.78140555      -2.52412948      -1.11382750
C       -3.55630145      -3.48446555      -1.77020462
C       -3.35895059      -3.77689836      -3.12670799
C       -2.36562675      -3.04068409      -3.80366977
C       -1.60224809      -2.03427202      -3.16757808
N       -0.68948675      -1.29101626      -3.97484443
C       -0.01614623      -1.76930706      -5.08684301
C        0.74999206      -0.76027626      -5.62678203
C        0.51928623       0.39440915      -4.85457125
C       -0.38148734       0.05129396      -3.86933762
C       -4.16757475      -4.81067288      -3.81772496
C       -4.55835323      -5.98844994      -3.16569880
C       -5.32323456      -6.96123885      -3.81709545
C       -5.71808033      -6.79580603      -5.15023255
C       -5.35148326      -5.62737047      -5.83241577
C       -4.58142475      -4.65281332      -5.15500468
N       -5.70663255      -5.35393784      -7.18599228
C       -4.93155577      -4.64606063      -8.09023497
C       -5.58723555      -4.58037487      -9.29954185
C       -6.82785014      -5.22630005      -9.13354753
C       -6.88672745      -5.66796060      -7.82931720
H       -2.94314356      -2.36400768      -0.04957104
H       -4.31971698      -4.00551130      -1.19510305
H       -2.21443766      -3.23773974      -4.86341229
H       -0.09370692      -2.80571125      -5.38397880
H        1.39883260      -0.85010939      -6.48879582
H        0.93950537       1.37988311      -5.00947613
H       -0.85762348       0.68378084      -3.13404139
H       -4.25123221      -6.18227605      -2.13958882
H       -5.57897544      -7.86943413      -3.27420689
H       -4.34107576      -3.71866900      -5.66128057
H       -3.94656032      -4.28923700      -7.82240878
H       -5.20973280      -4.11137776     -10.19913453
H       -7.60867326      -5.34089566      -9.87451656
H       -7.70384990      -6.14431465      -7.30736365
C       -6.35671556      -7.94419598      -5.73925341
C       -6.89157256      -8.90597256      -6.23255838
Br      -7.75639110     -10.46108395      -7.03019080
C       -1.79923937       1.79923937       1.79923937
C       -1.53117865       1.71732537       3.17085851
C       -2.35767524       2.34879429       4.10450209
C       -3.49768721       3.05973834       3.70513138
C       -3.75621741       3.13241681       2.32134639
C       -2.90717182       2.53767746       1.35924891
N       -3.21786839       2.75436762      -0.01688857
C       -4.48712540       2.92865364      -0.54348274
C       -4.39380129       3.14381807      -1.90055313
C       -3.02412277       3.14412990      -2.22737680
C       -2.32704447       2.93019642      -1.05770990
C       -4.38587650       3.71234837       4.69774772
C       -4.64835017       3.12225632       5.94189549
C       -5.48356093       3.73970419       6.87830372
C       -6.09578288       4.96791149       6.60042454
C       -5.85110382       5.59124359       5.36892208
C       -4.99966033       4.95311790       4.43646452
N       -6.41522683       6.84394626       4.98738958
C       -6.76688371       7.20430258       3.69666507
C       -7.28140244       8.48174940       3.70400042
C       -7.20705897       8.95049938       5.03013937
C       -6.65287806       7.94219880       5.78892840
H       -0.68225913       1.14092409       3.53353907
H       -2.09284487       2.27003799       5.15744848
H       -4.62418599       3.70020105       1.99120266
H       -5.36702065       2.83849397       0.07788235
H       -5.22625505       3.29079529      -2.57697773
H       -2.58420244       3.30854476      -3.20265955
H       -1.25946229       2.94006951      -0.89164777
H       -4.22403713       2.15271618       6.19634377
H       -5.67532831       3.22769633       7.81959182
H       -4.76132504       5.45842175       3.50127853
H       -6.67637421       6.50469848       2.87713342
H       -7.66244876       9.01518236       2.84261398
H       -7.50291488       9.92556726       5.39560334
H       -6.37355466       7.94951137       6.83246218
C       -7.05394581       5.40269292       7.58352621
C       -7.85640727       5.76682237       8.40687387
Br      -9.15391957       6.35558889       9.73815739
C        1.79923937      -1.79923937       1.79923937
C        2.39512614      -1.14200622       2.88223016
C        3.34513086      -1.78560932       3.68023144
C        3.75634217      -3.09771864       3.40849612
C        3.14934404      -3.74649832       2.31413826
C        2.15427806      -3.12730800       1.52251213
N        1.54463026      -3.91246250       0.49825468
C        2.15603347      -4.93074022      -0.21447739
C        1.25057683      -5.48084238      -1.09435298
C        0.02533015      -4.81484199      -0.89929627
C        0.22406650      -3.88082132       0.09464317
C        4.77963002      -3.77307610       4.24326647
C        5.87132593      -3.06991866       4.77125739
C        6.83404912      -3.70688292       5.56063680
C        6.74522629      -5.07530320       5.84358942
C        5.66342412      -5.80965998       5.33818541
C        4.69728292      -5.14655294       4.54540690
N        5.47169636      -7.20313066       5.57173565
C        4.89482601      -8.09291437       4.68011098
C        4.87657342      -9.35138399       5.23919486
C        5.41583936      -9.23655241       6.53530595
C        5.74866526      -7.91233778       6.72300222
H        2.14091925      -0.10809256       3.10771048
H        3.76283402      -1.23572715       4.52177017
H        3.43915567      -4.77407024       2.10236378
H        3.20414462      -5.15707525      -0.07782291
H        1.45440358      -6.28065488      -1.79498586
H       -0.91191973      -5.00746379      -1.40545640
H       -0.49687565      -3.23285085       0.57190883
H        6.00603897      -2.01157729       4.55548082
H        7.67603551      -3.12122830       5.92535265
H        3.82551460      -5.69889028       4.19662045
H        4.59052858      -7.77543189       3.69224564
H        4.50801881     -10.25032392       4.76190237
H        5.53111931     -10.02607219       7.26689397
H        6.12219459      -7.42274394       7.61058967
C        7.88682495      -5.62763335       6.52570666
C        8.84291382      -6.09020984       7.09697984
Br      10.38882866      -6.83815692       8.02068027
C       -0.00445707       0.01189536      -1.78238275
H       -0.66409135       0.67374010      -2.43557963
H        0.65740317      -0.63156657      -2.45157240
C       -0.90989263      -0.90692880      -0.91072765
C        0.90977584       0.90977584      -0.90977584
C       -0.00465871       1.77757030       0.00794375
H       -0.66225468       2.44313916      -0.64384735
H        0.64322798       2.43503045       0.67728295
C       -1.78241447       0.00034974      -0.00472694
H       -2.45427497      -0.65498947       0.64260836
H       -2.43311707       0.67328779      -0.65473579
C       -0.91132561       0.90220522       0.91563759
C       -0.01476271      -0.02253852       1.78660255
H       -0.67934791      -0.69751639       2.42135241
H        0.63392994       0.61504881       2.47327442
C        0.01484550      -1.77751727      -0.01636693
H        0.67870853      -2.42144646      -0.68295456
H       -0.62264859      -2.45592969       0.64226336
C        1.78714474       0.01002794       0.00389507
H        2.44202412       0.67113390       0.66197326
H        2.45385902      -0.65136977      -0.64189061
C        0.91606151      -0.90478549       0.90901405
