149
Properties=species:S:1:pos:R:3 pbc="F F F"
C        0.00000000       0.00000000       0.00000000
C        0.88190919       0.88190919      -0.88190919
C        0.79836267       2.26110131      -0.77941620
C        1.63561115       3.05906136      -1.56348973
C        2.59534940       2.50344500      -2.44359395
C        2.62762288       1.08725426      -2.57264147
C        1.76986857       0.29446174      -1.77936740
N        3.48019371       0.39077101      -3.49186667
C        4.72843046       0.75884717      -3.95390165
C        5.15619927      -0.14809129      -4.89972761
C        4.17315845      -1.15106273      -4.98928595
C        3.17397437      -0.81764986      -4.10181361
C        3.43021650       3.45093432      -3.21913409
C        3.22377965       3.48600697      -4.62033840
C        3.96415883       4.31885211      -5.46032782
C        4.91848072       5.16057894      -4.91279094
C        5.11101643       5.20361014      -3.53397342
C        4.36859284       4.36826171      -2.66978148
N        4.60328853       4.52546865      -1.26286470
C        4.99962148       5.70638623      -0.65001649
C        5.02369691       5.53191694       0.71567814
C        4.68355859       4.18979795       0.96540904
C        4.47483527       3.58798553      -0.25696997
Br       5.96947794       6.25201702      -6.04272198
H        0.10052234       2.72971817      -0.09165325
H        1.54868710       4.14095297      -1.46725558
H        1.81916095      -0.79181563      -1.81692540
H        5.23848296       1.62950299      -3.57064865
H        6.08722774      -0.09558689      -5.44990879
H        4.18450808      -2.02271283      -5.63086472
H        2.23769524      -1.32321263      -3.91057655
H        2.47987924       2.83111210      -5.07517049
H        3.79472974       4.28819417      -6.53321781
H        5.88259656       5.86460638      -3.14565403
H        5.17220879       6.60738404      -1.22218315
H        5.25948112       6.29551071       1.44621063
H        4.61567493       3.70264681       1.92973408
H        4.25739927       2.55313099      -0.47286911
C       -0.88190919      -0.88190919      -0.88190919
C       -0.32703447      -1.96082529      -1.55102040
C       -1.14876961      -2.78378387      -2.32560877
C       -2.54469794      -2.57055449      -2.42713591
C       -3.08464060      -1.42710234      -1.77577568
C       -2.24023457      -0.60037010      -1.00309304
N       -4.46080257      -1.03391859      -1.86811023
C       -5.57407001      -1.83426129      -2.03284797
C       -6.69471326      -1.04336076      -2.16976156
C       -6.28085337       0.29376304      -2.02429134
C       -4.91995984       0.27459148      -1.81276977
C       -3.31290666      -3.51317744      -3.27420082
C       -3.87397300      -2.99059432      -4.46555770
C       -4.63746097      -3.77266034      -5.33321746
C       -4.83913078      -5.11168576      -5.04103405
C       -4.25418628      -5.68166359      -3.91275011
C       -3.47717019      -4.90417960      -3.02528624
N       -2.87479837      -5.59541686      -1.92140665
C       -2.49404039      -6.93038825      -1.93159556
C       -1.85139803      -7.23585711      -0.75268057
C       -1.87475537      -6.07500506       0.04181294
C       -2.54105724      -5.10408705      -0.67464647
Br      -5.91879597      -6.16975903      -6.17566194
H        0.73344774      -2.18204345      -1.47329805
H       -0.68828530      -3.62389829      -2.84471206
H       -2.64155656       0.24445277      -0.44716693
H       -5.50157705      -2.91118934      -2.02586819
H       -7.70298408      -1.39992990      -2.33863566
H       -6.90146458       1.17933071      -2.07052610
H       -4.23881584       1.10533826      -1.69158159
H       -3.73108636      -1.93895354      -4.71612192
H       -5.07622230      -3.32108879      -6.21883062
H       -4.45193834      -6.73167466      -3.70924397
H       -2.64656550      -7.55284189      -2.80236860
H       -1.41357977      -8.19374490      -0.50145653
H       -1.46867176      -5.95839611       1.03848021
H       -2.80886793      -4.10368968      -0.37084177
C       -0.88190919       0.88190919       0.88190919
C       -0.85863497       0.72224666       2.25799855
C       -1.64073030       1.55863412       3.05879783
C       -2.43904273       2.59185409       2.51149152
C       -2.48942720       2.70372297       1.09436844
C       -1.69948933       1.84612359       0.29808479
N       -3.32462916       3.63942290       0.39877933
C       -3.74121877       4.89029262       0.80966788
C       -4.61336465       5.41461762      -0.12014668
C       -4.69885591       4.49065090      -1.17812514
C       -3.88319481       3.42910316      -0.85415986
C       -3.22084348       3.41772879       3.46171264
C       -4.63063960       3.28590226       3.41358316
C       -5.47535592       4.02692573       4.24105713
C       -4.92590957       4.90574452       5.16019651
C       -3.54337861       5.02091073       5.28431064
C       -2.67449668       4.27666719       4.45547216
N       -1.26795983       4.42649385       4.69716820
C       -0.70038643       4.72793101       5.92770676
C        0.67218170       4.68698206       5.82513534
C        0.97639344       4.40317405       4.48116689
C       -0.22072365       4.29208397       3.80698315
Br      -6.05780942       5.95893772       6.24746980
H       -0.23397466      -0.03492907       2.72284818
H       -1.60778044       1.41120431       4.13791090
H       -1.67562099       1.95307606      -0.78442633
H       -3.37997112       5.33348606       1.72517741
H       -5.11705966       6.37013354      -0.04564356
H       -5.29088927       4.58143898      -2.07966828
H       -3.71319309       2.51103593      -1.39916985
H       -5.08694900       2.60231021       2.69690263
H       -6.55229517       3.91760922       4.14623733
H       -3.15230587       5.73539196       6.00515915
H       -1.31086267       4.88475085       6.80616246
H        1.37145591       4.84337208       6.63686504
H        1.96091236       4.30829676       4.04120327
H       -0.39117533       4.14006352       2.75216052
C        0.88190919      -0.88190919       0.88190919
C        2.25872208      -0.84998081       0.73017728
C        3.05921498      -1.63227831       1.56666896
C        2.51062853      -2.43950023       2.59225958
C        1.09320597      -2.49849840       2.69581424
C        0.29730361      -1.70821302       1.83818107
N        0.39709966      -3.34289147       3.62284025
C        0.80328948      -3.76423872       4.87365106
C       -0.12450856      -4.64456365       5.38778049
C       -1.17676497      -4.73077750       4.45736914
C       -0.85145114      -3.90730494       3.40228432
C        3.46059604      -3.22060203       3.41908684
C        3.42119595      -4.62987756       3.27905151
C        4.24925450      -5.47410366       4.01998062
C        5.16030261      -4.92447578       4.90707221
C        5.27593320      -3.54194220       5.03072458
C        4.44639144      -2.67354071       4.28670388
N        4.67926899      -1.26653608       4.44581681
C        5.90485566      -0.69375743       4.75741111
C        5.79474365       0.67842114       4.72361320
C        4.45069345       0.97666109       4.43391514
C        3.78393762      -0.22358577       4.31226737
Br       6.24802062      -6.05618117       5.96001515
H        2.72428332      -0.21843345      -0.02082301
H        4.13893736      -1.59241654       1.42554175
H       -0.78591055      -1.69104827       1.93913301
H        1.71422742      -3.40035652       5.32405065
H       -0.05253653      -5.15323521       6.34085097
H       -2.07543730      -5.32838398       4.53971329
H       -1.39223584      -3.73517818       2.48211683
H        2.71097310      -5.08633696       2.58885177
H        4.16115342      -6.55092341       3.90406488
H        5.99051942      -3.15086887       5.75146868
H        6.78585794      -1.30015473       4.91576331
H        6.60160578       1.38135912       4.88853455
H        4.00570172       1.95920800       4.34209394
H        2.73097034      -0.39911202       4.15331701
