170
Properties=species:S:1:pos:R:3 pbc="F F F"
C        1.79181321       1.79181321      -1.79181321
C        1.70826669       3.17100533      -1.68932022
C        2.54551518       3.96896538      -2.47339375
C        3.50525342       3.41334903      -3.35349797
C        3.53752691       1.99715829      -3.48254550
C        2.67977259       1.20436576      -2.68927143
N        4.39009773       1.30067504      -4.40177069
C        5.63833448       1.66875119      -4.86380567
C        6.06610329       0.76181273      -5.80963163
C        5.08306248      -0.24115871      -5.89918998
C        4.08387839       0.09225416      -5.01171764
C        4.34012053       4.36083834      -4.12903812
C        4.13368367       4.39591099      -5.53024242
C        4.87406286       5.22875614      -6.37023185
C        5.82838475       6.07048296      -5.82269496
C        6.02092045       6.11351416      -4.44387744
C        5.27849687       5.27816573      -3.57968550
N        5.51319255       5.43537268      -2.17276873
C        5.90952550       6.61629025      -1.55992051
C        5.93360094       6.44182096      -0.19422588
C        5.59346262       5.09970197       0.05550501
C        5.38473929       4.49788956      -1.16687399
Br       6.87938196       7.16192104      -6.95262600
H        1.01042636       3.63962220      -1.00155727
H        2.45859113       5.05085700      -2.37715960
H        2.72906498       0.11808840      -2.72682943
H        6.14838698       2.53940701      -4.48055267
H        6.99713176       0.81431714      -6.35981282
H        5.09441210      -1.11280881      -6.54076875
H        3.14759927      -0.41330860      -4.82048058
H        3.38978327       3.74101612      -5.98507452
H        4.70463376       5.19809819      -7.44312183
H        6.79250058       6.77451041      -4.05555805
H        6.08211281       7.51728807      -2.13208718
H        6.16938515       7.20541474       0.53630660
H        5.52557895       4.61255084       1.01983006
H        5.16730329       3.46303502      -1.38277313
C       -1.79181321      -1.79181321      -1.79181321
C       -1.23756192      -2.87257922      -2.45845110
C       -2.05937020      -3.69546639      -3.23303773
C       -3.45481890      -3.48028042      -3.33700110
C       -3.99401359      -2.33502797      -2.68818913
C       -3.14952586      -1.50840432      -1.91547960
N       -5.36943733      -1.93990401      -2.78320212
C       -6.48366518      -2.73881094      -2.94841522
C       -7.60290107      -1.94642500      -3.08822159
C       -7.18723711      -0.60970977      -2.94414686
C       -5.82669558      -0.63061881      -2.73053580
C       -4.22317250      -4.42302239      -4.18380209
C       -4.78164464      -3.90139628      -5.37679616
C       -5.54500323      -4.68362002      -6.24442760
C       -5.74914227      -6.02189493      -5.95052547
C       -5.16676842      -6.59104726      -4.82049637
C       -4.38991863      -5.81339601      -3.93303346
N       -3.79026425      -6.50387081      -2.82719890
C       -3.41151346      -7.83943033      -2.83479248
C       -2.77111786      -8.14408487      -1.65444505
C       -2.79391851      -6.98199696      -0.86174411
C       -3.45766507      -6.01115866      -1.58067911
Br      -6.82869164      -7.08005149      -7.08518588
H       -0.17753468      -3.09528276      -2.37878839
H       -1.59937428      -4.53706135      -3.75017209
H       -3.55040815      -0.66213462      -1.36144004
H       -6.41281388      -3.81583558      -2.93969721
H       -8.61145422      -2.30172443      -3.25808308
H       -7.80643586       0.27672430      -2.99266049
H       -5.14447829       0.19927960      -2.60957256
H       -4.63678681      -2.85035344      -5.62873365
H       -5.98174052      -4.23272723      -7.13138604
H       -5.36641793      -7.64044871      -4.61570241
H       -3.56366414      -8.46297063      -3.70485328
H       -2.33513115      -9.10225205      -1.40111008
H       -2.38916633      -6.86449294       0.13535954
H       -3.72441951      -5.00989851      -1.27879342
C       -1.79181321       1.79181321       1.79181321
C       -2.99000273       1.29736746       2.28122205
C       -3.77198383       2.09834167       3.11754881
C       -3.36534641       3.39628130       3.51047270
C       -2.15867712       3.90419548       2.95435809
C       -1.38320459       3.08575977       2.10444542
N       -1.67196398       5.23297149       3.18760799
C       -1.83931625       6.02553915       4.30603594
C       -1.29194091       7.26956258       4.07604417
C       -0.70772893       7.23715973       2.79620508
C       -0.92631162       5.97729633       2.28424225
C       -4.27643461       4.14851317       4.40504921
C       -4.90693865       5.29378233       3.85911610
C       -5.76747647       6.09702745       4.60854693
C       -6.03953371       5.75812596       5.92390300
C       -5.49029857       4.60614073       6.48187275
C       -4.61870995       3.78144725       5.73619090
N       -4.14782597       2.59029557       6.38321242
C       -4.84382851       1.88580889       7.35609887
C       -4.15340698       0.73860624       7.67763455
C       -2.96533406       0.74817234       6.92415317
C       -2.96575462       1.90659550       6.17715272
Br      -7.15681378       6.86778781       6.96932742
H       -3.32405707       0.29405284       2.03349593
H       -4.71150652       1.68822180       3.48687940
H       -0.42717972       3.43074213       1.71606095
H       -2.32037357       5.65115283       5.19682026
H       -1.30088970       8.10171420       4.76865781
H       -0.18556424       8.04188629       2.29492150
H       -0.65884941       5.58153616       1.31438567
H       -4.70683720       5.58232161       2.82671510
H       -6.20262480       6.98503865       4.15819033
H       -5.71413839       4.38531943       7.52311123
H       -5.81347447       2.21423634       7.70377725
H       -4.47920890      -0.01945350       8.37873789
H       -2.17994854       0.00325818       6.93509301
H       -2.19616393       2.29134263       5.52560489
C        1.79181321      -1.79181321       1.79181321
C        2.98514609      -1.29392173       2.28952442
C        3.76695460      -2.09516281       3.12575690
C        3.36478820      -3.39699443       3.51031778
C        2.16336852      -3.90806740       2.94579477
C        1.38804903      -3.08926656       2.09609419
N        1.68206160      -5.24034119       3.17014067
C        1.84783387      -6.03757213       4.28548534
C        1.30771684      -7.28311363       4.04671719
C        0.72962424      -7.24727571       2.76419379
C        0.94451042      -5.98385436       2.25948541
C        4.27517580      -4.14914890       4.40567228
C        4.91397053      -5.28861878       3.85724777
C        5.77477039      -6.09131874       4.60696171
C        6.03871547      -5.75756395       5.92528325
C        5.48109574      -4.61103957       6.48617675
C        4.60912149      -3.78696429       5.74026232
N        4.12922246      -2.60132892       6.39078257
C        4.81698069      -1.89823795       7.37051763
C        4.11935881      -0.75602412       7.69426485
C        2.93504978      -0.76769913       6.93491066
C        2.94482511      -1.92241784       6.18225989
Br       7.15630979      -6.86687253       6.97074669
H        3.31546968      -0.28777753       2.04835862
H        4.70262945      -1.68227067       3.50170761
H        0.43564526      -3.43700980       1.70132774
H        2.32267769      -5.66522185       5.18044712
H        1.31736848      -8.11860838       4.73528486
H        0.21388431      -8.05207304       2.25641469
H        0.67985528      -5.58464221       1.29027376
H        4.72034674      -5.57305222       2.82247495
H        6.21648082      -6.97496325       4.15440971
H        5.69874717      -4.39424975       7.52957212
H        5.78651698      -2.22362139       7.72134969
H        4.43799215       0.00016343       8.40066456
H        2.14596539      -0.02670112       6.94563323
H        2.18033478      -2.30771783       5.52505883
C       -0.00445707       0.01189536      -1.78238275
H       -0.66409135       0.67374010      -2.43557963
H        0.65740317      -0.63156657      -2.45157240
C       -0.90989263      -0.90692880      -0.91072765
C        0.90977584       0.90977584      -0.90977584
C       -0.00465871       1.77757030       0.00794375
H       -0.66225468       2.44313916      -0.64384735
H        0.64322798       2.43503045       0.67728295
C       -1.78241447       0.00034974      -0.00472694
H       -2.45427497      -0.65498947       0.64260836
H       -2.43311707       0.67328779      -0.65473579
C       -0.91132561       0.90220522       0.91563759
C       -0.01476271      -0.02253852       1.78660255
H       -0.67934791      -0.69751639       2.42135241
H        0.63392994       0.61504881       2.47327442
C        0.01484550      -1.77751727      -0.01636693
H        0.67870853      -2.42144646      -0.68295456
H       -0.62264859      -2.45592969       0.64226336
C        1.78714474       0.01002794       0.00389507
H        2.44202412       0.67113390       0.66197326
H        2.45385902      -0.65136977      -0.64189061
C        0.91606151      -0.90478549       0.90901405
