178
Properties=species:S:1:pos:R:3 pbc="F F F"
C        1.79181321       1.79181321      -1.79181321
C        1.70826669       3.17100533      -1.68932022
C        2.54551518       3.96896538      -2.47339375
C        3.50525342       3.41334903      -3.35349797
C        3.53752691       1.99715829      -3.48254550
C        2.67977259       1.20436576      -2.68927143
N        4.39009773       1.30067504      -4.40177069
C        5.63833448       1.66875119      -4.86380567
C        6.06610329       0.76181273      -5.80963163
C        5.08306248      -0.24115871      -5.89918998
C        4.08387839       0.09225416      -5.01171764
C        4.34012053       4.36083834      -4.12903812
C        4.13368367       4.39591099      -5.53024242
C        4.87406286       5.22875614      -6.37023185
C        5.82838475       6.07048296      -5.82269496
C        6.02092045       6.11351416      -4.44387744
C        5.27849687       5.27816573      -3.57968550
N        5.51319255       5.43537268      -2.17276873
C        5.90952550       6.61629025      -1.55992051
C        5.93360094       6.44182096      -0.19422588
C        5.59346262       5.09970197       0.05550501
C        5.38473929       4.49788956      -1.16687399
H        1.01042636       3.63962220      -1.00155727
H        2.45859113       5.05085700      -2.37715960
H        2.72906498       0.11808840      -2.72682943
H        6.14838698       2.53940701      -4.48055267
H        6.99713176       0.81431714      -6.35981282
H        5.09441210      -1.11280881      -6.54076875
H        3.14759927      -0.41330860      -4.82048058
H        3.38978327       3.74101612      -5.98507452
H        4.70463376       5.19809819      -7.44312183
H        6.79250058       6.77451041      -4.05555805
H        6.08211281       7.51728807      -2.13208718
H        6.16938515       7.20541474       0.53630660
H        5.52557895       4.61255084       1.01983006
H        5.16730329       3.46303502      -1.38277313
C        6.62909114       6.90199939      -6.68353740
C        7.29968274       7.59839440      -7.40449294
Br       8.38397265       8.72440622      -8.57021708
C       -1.79181321      -1.79181321      -1.79181321
C       -1.89869268      -3.14681118      -1.52308839
C       -2.73693762      -3.93851142      -2.31242528
C       -3.51069977      -3.39518348      -3.36621716
C       -3.34552488      -2.01299178      -3.65871403
C       -2.48879157      -1.22753233      -2.85708588
N       -3.99112914      -1.34812696      -4.75328736
C       -5.21557913      -1.62810181      -5.32721040
C       -5.41258368      -0.80769384      -6.41727015
C       -4.30487623       0.05692687      -6.49314439
C       -3.46449386      -0.27104449      -5.45231184
C       -4.36681608      -4.33336177      -4.12981913
C       -4.00845505      -4.57176200      -5.47962003
C       -4.74939622      -5.41605273      -6.30760190
C       -5.86019293      -6.06614986      -5.79521988
C       -6.21236387      -5.90915570      -4.45679248
C       -5.47184166      -5.05951654      -3.60498990
N       -5.88343983      -5.00658395      -2.23131017
C       -6.49563876      -6.04594051      -1.54415700
C       -6.65236660      -5.69554681      -0.22173436
C       -6.17297159      -4.37996679      -0.08472119
C       -5.75074150      -3.96819812      -1.33056322
H       -1.34983994      -3.59937620      -0.70238969
H       -2.80151174      -5.00182074      -2.08327525
H       -2.39326051      -0.15663414      -3.02408815
H       -5.87373603      -2.37841691      -4.91619372
H       -6.27389173      -0.82424580      -7.07312419
H       -4.13083158       0.83432714      -7.22586760
H       -2.49883899       0.14502998      -5.20096223
H       -3.13955057      -4.06983227      -5.90649107
H       -4.45640662      -5.54322978      -7.34621739
H       -7.10175011      -6.42250594      -4.09831300
H       -6.71649296      -6.98753443      -2.02746066
H       -7.06608771      -6.32691571       0.55451014
H       -6.15317209      -3.78367047       0.81854282
H       -5.37876599      -3.00127578      -1.63306968
C       -6.65801918      -6.90494816      -6.65166059
C       -7.32619867      -7.60744173      -7.36892968
Br      -8.40658839      -8.74331443      -8.52869314
C       -1.79181321       1.79181321       1.79181321
C       -2.76247100       1.21286963       2.59325161
C       -3.53915327       2.02431623       3.42440481
C       -3.34713446       3.42496028       3.50000568
C       -2.38235763       4.00462749       2.63024557
C       -1.61066395       3.17245807       1.79028775
N       -2.14650518       5.41576863       2.53026964
C       -2.28124182       6.38105311       3.50859641
C       -2.04791857       7.62566148       2.96396760
C       -1.69472742       7.43055751       1.61580882
C       -1.73343461       6.07400730       1.38040829
C       -4.22840447       4.17952850       4.42206402
C       -5.16370202       5.06472274       3.83141233
C       -6.03128279       5.84722305       4.59454500
C       -6.00133205       5.74453094       5.97569968
C       -5.14095797       4.84157896       6.59577513
C       -4.25768691       4.04104342       5.83761776
N       -3.44972682       3.10535785       6.56624928
C       -3.81134947       2.50819706       7.76618974
C       -2.85587685       1.58521191       8.12855901
C       -1.84012104       1.64082824       7.15671030
C       -2.20477860       2.60406614       6.24065809
H       -2.92043393       0.13832399       2.59284790
H       -4.29810347       1.54578684       4.04271742
H       -0.82565874       3.58707922       1.16124485
H       -2.51733187       6.12161821       4.52939658
H       -2.11015768       8.56849446       3.49260958
H       -1.44143603       8.19174153       0.88919448
H       -1.55851431       5.53867198       0.45758495
H       -5.20478506       5.16477937       2.74630947
H       -6.70927560       6.53711833       4.09945986
H       -5.13516418       4.80459589       7.68280897
H       -4.75462370       2.73204961       8.24481475
H       -2.89564442       0.94326970       8.99957916
H       -0.92826508       1.05793884       7.13209581
H       -1.65219167       2.97143769       5.38948208
C       -6.86061017       6.57890173       6.77511603
C       -7.58025559       7.27768726       7.44462723
Br      -8.74386137       8.40756436       8.52717022
C        1.79181321      -1.79181321       1.79181321
C        2.76369459      -1.21302086       2.59187680
C        3.54039436      -2.02441915       3.42306080
C        3.34720110      -3.42482470       3.50007462
C        2.38113943      -4.00440646       2.63168480
C        1.60943879      -3.17229761       1.79167338
N        2.14394747      -5.41542585       2.53317013
C        2.27869633      -6.37996183       3.51223318
C        2.04378667      -7.62484501       2.96891597
C        1.68957255      -7.43062296       1.62089824
C        1.72927343      -6.07431685       1.38425992
C        4.22861963      -4.17935686       4.42202050
C        5.16260763      -5.06590390       3.83132555
C        6.03017115      -5.84849687       4.59438281
C        6.00153697      -5.74455387       5.97547184
C        5.14251421      -4.84028949       6.59550835
C        4.25928083      -4.03964298       5.83742430
N        3.45279737      -3.10259531       6.56594128
C        3.81601382      -2.50469209       7.76503036
C        2.86168171      -1.58053865       8.12742742
C        1.84501508      -1.63611521       7.15652929
C        2.20800564      -2.60048800       6.24100920
H        2.92260963      -0.13861659       2.59037962
H        4.30031681      -1.54601540       4.04027551
H        0.82350849      -3.58677955       1.16369477
H        2.51592194      -6.11983167       4.53259306
H        2.10565897      -8.56726383       3.49833892
H        1.43496184      -8.19222578       0.89518441
H        1.55400903      -5.53964483       0.46111738
H        5.20263914      -5.16695885       2.74627591
H        6.70711255      -6.53943208       4.09930916
H        5.13771774      -4.80233765       7.68251366
H        4.75951354      -2.72895712       8.24301739
H        2.90279119      -0.93786006       8.99784203
H        0.93365474      -1.05243901       7.13220599
H        1.65433822      -2.96812352       5.39064970
C        6.86078405      -6.57897774       6.77486614
C        7.58040348      -7.27780773       7.44435887
Br       8.74396723      -8.40775673       8.52687200
C       -0.00445707       0.01189536      -1.78238275
H       -0.66409135       0.67374010      -2.43557963
H        0.65740317      -0.63156657      -2.45157240
C       -0.90989263      -0.90692880      -0.91072765
C        0.90977584       0.90977584      -0.90977584
C       -0.00465871       1.77757030       0.00794375
H       -0.66225468       2.44313916      -0.64384735
H        0.64322798       2.43503045       0.67728295
C       -1.78241447       0.00034974      -0.00472694
H       -2.45427497      -0.65498947       0.64260836
H       -2.43311707       0.67328779      -0.65473579
C       -0.91132561       0.90220522       0.91563759
C       -0.01476271      -0.02253852       1.78660255
H       -0.67934791      -0.69751639       2.42135241
H        0.63392994       0.61504881       2.47327442
C        0.01484550      -1.77751727      -0.01636693
H        0.67870853      -2.42144646      -0.68295456
H       -0.62264859      -2.45592969       0.64226336
C        1.78714474       0.01002794       0.00389507
H        2.44202412       0.67113390       0.66197326
H        2.45385902      -0.65136977      -0.64189061
C        0.91606151      -0.90478549       0.90901405
