186
Properties=species:S:1:pos:R:3 pbc="F F F"
C        1.79199801       1.79199801      -1.79199801
C        1.59677786       3.16766067      -1.80311868
C        2.40207989       3.96857969      -2.61357753
C        3.41398892       3.40563028      -3.40971989
C        3.62621250       2.01120203      -3.37761663
C        2.79210598       1.21034148      -2.57206829
N        4.66071863       1.36083118      -4.12019597
C        5.89813540       1.87099300      -4.46170010
C        6.60974093       0.92195858      -5.16234575
C        5.80198912      -0.22786646      -5.24292925
C        4.62645117       0.05499557      -4.58231812
C        4.08725231       4.29993337      -4.30663318
C        4.64228418       5.01862863      -5.09290737
C        5.38611649       5.84675835      -6.14131509
C        5.99541449       6.41209139      -7.00896120
C        6.72909667       7.06479912      -8.05406486
C        6.43636802       8.42436321      -8.25907635
C        7.15668960       9.18445409      -9.18097702
C        8.18610295       8.59011060      -9.89975655
C        8.49741241       7.24298239      -9.71167806
C        7.76407102       6.45932632      -8.79757671
N        8.10763473       5.07557587      -8.68251942
C        9.35997950       4.53181904      -8.92149932
C        9.31383651       3.16923919      -8.72343694
C        7.98744994       2.84513828      -8.38286189
C        7.26923665       4.02089459      -8.37856048
Br       9.16266665       9.61194940     -11.15564243
H        0.81798911       3.62528026      -1.19861237
H        2.21977945       5.04202648      -2.63805565
H        2.93940609       0.13516504      -2.50627574
H        6.21232489       2.85411981      -4.14394702
H        7.61187981       1.04811660      -5.55177199
H        6.04704959      -1.16596924      -5.72407061
H        3.75008674      -0.56395310      -4.45034878
H        5.64745083       8.90696093      -7.68374833
H        6.91093204      10.23371457      -9.32223675
H        9.28368636       6.80523826     -10.32180866
H       10.20560382       5.15800711      -9.16907310
H       10.14874723       2.48734756      -8.82101280
H        7.58376093       1.86107044      -8.18185253
H        6.20964031       4.16387495      -8.22889788
C       -1.79199801      -1.79199801      -1.79199801
C       -2.36773151      -1.26039210      -2.93943360
C       -3.17598038      -2.06877648      -3.73948025
C       -3.40706666      -3.41459294      -3.40767949
C       -2.80117946      -3.95841336      -2.25543835
C       -2.00490240      -3.12623429      -1.44337906
N       -2.94599095      -5.32730912      -1.86844571
C       -3.11470956      -6.42114239      -2.69497656
C       -3.19554650      -7.56582883      -1.93266993
C       -3.04986254      -7.18033786      -0.58685151
C       -2.87763728      -5.81342686      -0.57270072
C       -4.36188182      -4.11330283      -4.21863420
C       -5.18376060      -4.71172538      -4.85833420
C       -6.22997437      -5.54726627      -5.59694928
C       -7.05257847      -6.26475176      -6.09913686
C       -8.03292432      -7.13621213      -6.67882421
C       -8.80073354      -6.59463906      -7.72443498
C       -9.71519058      -7.37987461      -8.42705553
C       -9.86113005      -8.72059134      -8.09424871
C       -9.10813826      -9.28174671      -7.06218790
C       -8.19523214      -8.49405315      -6.33168876
N       -7.48499096      -9.12084061      -5.25989845
C       -7.16447624     -10.46706301      -5.18175861
C       -6.49093026     -10.71067216      -4.00491022
C       -6.41604040      -9.48908367      -3.31032604
C       -7.04098406      -8.53924297      -4.08846469
Br     -11.10302467      -9.78969278      -9.03754102
H       -2.20630517      -0.22128251      -3.21429406
H       -3.64717304      -1.63321647      -4.61947208
H       -1.50553641      -3.51567388      -0.55963658
H       -3.11707567      -6.32290294      -3.77041311
H       -3.32521698      -8.56944478      -2.31710665
H       -3.06240614      -7.82516361       0.28241880
H       -2.75952368      -5.14767332       0.27071458
H       -8.67726265      -5.55085824      -8.01003920
H      -10.29789730      -6.93792213      -9.23106394
H       -9.28002843     -10.32438372      -6.80632113
H       -7.39619610     -11.14680579      -5.98968214
H       -6.10290164     -11.66915798      -3.68504796
H       -5.97555157      -9.31398020      -2.33715213
H       -7.24030869      -7.50334049      -3.85876397
C       -1.79199801       1.79199801       1.79199801
C       -1.78258816       3.17011737       1.61485167
C       -2.58669677       3.97179626       2.42574407
C       -3.41337361       3.40519307       3.41077241
C       -3.43947546       2.00379996       3.57175575
C       -2.60645299       1.20622698       2.76183578
N       -4.28300189       1.34134970       4.51739419
C       -5.52863791       1.74332241       4.95886819
C       -6.01942283       0.81940009       5.85522234
C       -5.06132102      -0.20613508       5.96186597
C       -4.02021411       0.12225737       5.12129338
C       -4.08986732       4.32587174       4.27807980
C       -4.63956145       5.07287635       5.04138238
C       -5.35880614       5.94039397       6.07498982
C       -5.93180445       6.54098478       6.94367784
C       -6.61798775       7.23664120       7.99333170
C       -6.48764701       8.63633380       7.99582677
C       -7.18955270       9.42274944       8.90981857
C       -8.03836387       8.81284626       9.82475997
C       -8.18665755       7.42546750       9.83994781
C       -7.46787025       6.61844001       8.93466379
N       -7.63440581       5.20099394       9.03033027
C       -8.76584075       4.55044527       9.49701185
C       -8.56151178       3.18861527       9.45638558
C       -7.25310621       2.98032570       8.98201819
C       -6.70415191       4.22125559       8.74328422
Br      -8.98809416       9.87131988      11.07084445
H       -1.14864840       3.63125899       0.86197435
H       -2.54800563       5.05280194       2.29905402
H       -2.61533723       0.12211466       2.84339498
H       -6.00670643       2.63122060       4.57246469
H       -6.97654325       0.87762738       6.35759777
H       -5.12033557      -1.09372585       6.57854124
H       -3.09062985      -0.40124810       4.94710067
H       -5.84364613       9.12714897       7.26736500
H       -7.07143459      10.50304727       8.89240151
H       -8.82995883       6.98375415      10.59702030
H       -9.65253324       5.10015590       9.77999489
H       -9.28036770       2.43238080       9.74435908
H       -6.74792672       2.03265510       8.84610209
H       -5.69825984       4.46669303       8.43746028
C        1.79199801      -1.79199801       1.79199801
C        2.41533478      -1.24524029       2.90698213
C        3.22334291      -2.05385483       3.70703936
C        3.40687306      -3.41456963       3.40789640
C        2.75292532      -3.97279582       2.28931003
C        1.95720032      -3.14108898       1.47622646
N        2.84800843      -5.35562849       1.93810886
C        3.00975642      -6.43024274       2.79082934
C        3.03637000      -7.59773704       2.05993821
C        2.86275066      -7.24613460       0.70816665
C        2.72863258      -5.87575532       0.65937697
C        4.36472274      -4.11752629       4.21156983
C        5.18761252      -4.72124489       4.84496277
C        6.23085543      -5.56559264       5.57774186
C        7.04715494      -6.29215917       6.07715297
C        8.01898404      -7.17495644       6.65402017
C        8.83157909      -6.62664683       7.66158166
C        9.74354476      -7.41793460       8.36064136
C        9.84211132      -8.77112242       8.06273635
C        9.04416333      -9.33904605       7.06886349
C        8.13301099      -8.54612977       6.34183329
N        7.37478864      -9.18198254       5.30895884
C        7.01448153     -10.52004743       5.27876890
C        6.30064756     -10.77704242       4.12882265
C        6.24005041      -9.57378264       3.40161705
C        6.91363160      -8.62091916       4.13414096
Br      11.08023148      -9.84874741       9.00127960
H        2.29115239      -0.19459428       3.15613507
H        3.73180162      -1.60755373       4.56050624
H        1.42177764      -3.54059856       0.61847067
H        3.04594456      -6.30195840       3.86248877
H        3.14886375      -8.59349105       2.46941359
H        2.83207015      -7.91520417      -0.14212336
H        2.60494241      -5.23080918      -0.19926918
H        8.74576283      -5.57212817       7.92026909
H       10.36141157      -6.97060072       9.13487107
H        9.17925069     -10.39298563       6.83849696
H        7.25026776     -11.18324959       6.09916668
H        5.87678453     -11.73252156       3.84780150
H        5.77672333      -9.41341895       2.43654162
H        7.13524220      -7.59806418       3.86910676
C       -0.00445707       0.01189536      -1.78238275
H       -0.66409135       0.67374010      -2.43557963
H        0.65740317      -0.63156657      -2.45157240
C       -0.90989263      -0.90692880      -0.91072765
C        0.90977584       0.90977584      -0.90977584
C       -0.00465871       1.77757030       0.00794375
H       -0.66225468       2.44313916      -0.64384735
H        0.64322798       2.43503045       0.67728295
C       -1.78241447       0.00034974      -0.00472694
H       -2.45427497      -0.65498947       0.64260836
H       -2.43311707       0.67328779      -0.65473579
C       -0.91132561       0.90220522       0.91563759
C       -0.01476271      -0.02253852       1.78660255
H       -0.67934791      -0.69751639       2.42135241
H        0.63392994       0.61504881       2.47327442
C        0.01484550      -1.77751727      -0.01636693
H        0.67870853      -2.42144646      -0.68295456
H       -0.62264859      -2.45592969       0.64226336
C        1.78714474       0.01002794       0.00389507
H        2.44202412       0.67113390       0.66197326
H        2.45385902      -0.65136977      -0.64189061
C        0.91606151      -0.90478549       0.90901405
