133
Properties=species:S:1:pos:R:3 pbc="F F F"
C        0.00000000       0.00000000       0.00000000
C        0.89195858       0.89195858      -0.89195858
C        1.60557715       0.23158930      -1.89270211
C        2.43568799       0.95162889      -2.74105051
C        2.56308234       2.34527806      -2.61324015
C        1.83475753       3.03158143      -1.59625251
C        0.98956615       2.29631734      -0.71755147
C        0.28830132       3.00724893       0.28898307
C        0.40209611       4.39006877       0.43550120
C        1.21686243       5.10515023      -0.42440498
C        1.91956113       4.43511877      -1.42528996
C        3.48168872       3.03985135      -3.54550258
C        4.79003891       3.29618447      -3.10149450
C        5.71079372       3.92899352      -3.92572960
C        5.34193793       4.31065714      -5.21645391
C        4.03590675       4.07027230      -5.71419826
C        3.09231867       3.42971818      -4.86182586
C        1.78604559       3.20243600      -5.35950851
C        1.40821743       3.57287338      -6.64973704
C        2.32727256       4.18773364      -7.48210147
C        3.61983777       4.43444299      -7.01984545
Br       6.69796645       5.16720374      -6.25001021
H        1.52417690      -0.84547134      -2.01799204
H        2.99074500       0.42274382      -3.51459644
H       -0.36571962       2.48860702       0.98602862
H       -0.14936650       4.90142462       1.21997332
H        1.30994403       6.18304628      -0.32271862
H        2.54477565       5.03544088      -2.08475987
H        5.09272214       2.99929513      -2.09866225
H        6.71482061       4.11767200      -3.55347648
H        1.03134059       2.72698542      -4.73529393
H        0.39651830       3.37925487      -6.99745162
H        2.04429742       4.47948931      -8.48985584
H        4.30611323       4.92232737      -7.70843884
C       -0.89195858      -0.89195858      -0.89195858
C       -1.20661217      -0.37435469      -2.14890170
C       -2.00570159      -1.10464436      -3.01802144
C       -2.49892247      -2.36906592      -2.65361217
C       -2.17999120      -2.91011385      -1.37248642
C       -1.36879854      -2.16080224      -0.47383418
C       -1.07959791      -2.72246702       0.79549775
C       -1.56091725      -3.97464296       1.17889653
C       -2.34194205      -4.70613850       0.30166290
C       -2.64380674      -4.18156305      -0.95460007
C       -3.35901886      -3.07865591      -3.62936788
C       -4.75100566      -2.95294505      -3.48376716
C       -5.61906470      -3.57663498      -4.36981717
C       -5.10976199      -4.33285819      -5.42642881
C       -3.71334527      -4.48662086      -5.62041117
C       -2.82725852      -3.85308221      -4.70352197
C       -1.43388903      -4.01930064      -4.89480043
C       -0.91338000      -4.76652632      -5.95092153
C       -1.77375180      -5.37555865      -6.84779722
C       -3.15197457      -5.23929098      -6.68286066
Br      -6.40497248      -5.13495833      -6.57524959
H       -0.83637319       0.59959355      -2.45991795
H       -2.24759747      -0.68638799      -3.99409981
H       -0.46779401      -2.18608756       1.51702279
H       -1.32021790      -4.37284757       2.16098067
H       -2.71880799      -5.68445474       0.58755380
H       -3.25606103      -4.79171005      -1.61720532
H       -5.16188658      -2.36188245      -2.66691050
H       -6.69149249      -3.46469625      -4.22978036
H       -0.72301210      -3.56188325      -4.20872461
H        0.16271164      -4.86918129      -6.06675514
H       -1.37930714      -5.95909166      -7.67524378
H       -3.78836548      -5.73803794      -7.41047602
C       -0.89195858       0.89195858       0.89195858
C       -2.07196310       1.35167470       0.30623075
C       -2.93477517       2.16208831       1.03150392
C       -2.64155627       2.52220708       2.35783721
C       -1.43985515       2.05435596       2.96838036
C       -0.54703980       1.23090074       2.22549442
C        0.64352123       0.79197045       2.85811795
C        0.95571147       1.13961296       4.17276219
C        0.08332476       1.93267707       4.89706534
C       -1.09641248       2.38017718       4.30338020
C       -3.60376414       3.40388994       3.05938857
C       -3.33961538       4.78404707       3.06405542
C       -4.20480309       5.67274236       3.68797139
C       -5.35836912       5.19739304       4.31328683
C       -5.67330367       3.81474864       4.33232499
C       -4.77805662       2.90629862       3.69950747
C       -5.09112430       1.52547756       3.73138824
C       -6.24431566       1.03965875       4.34685343
C       -7.11961371       1.92278325       4.95471071
C       -6.83643857       3.28845261       4.94923503
Br      -6.46631283       6.51873820       5.13012937
H       -2.32718422       1.08646962      -0.71695624
H       -3.84991384       2.51792428       0.56024714
H        1.35791106       0.16495537       2.32981447
H        1.87861134       0.78602376       4.62467238
H        0.31373587       2.20625590       5.92318889
H       -1.75850240       2.99687006       4.90960394
H       -2.44591750       5.16906747       2.57569456
H       -3.97233892       6.73487112       3.67875906
H       -4.42639643       0.79688571       3.27033780
H       -6.45223686      -0.02743777       4.34842570
H       -8.02190632       1.55557695       5.43615929
H       -7.55176113       3.94335015       5.44176816
C        0.89195858      -0.89195858       0.89195858
C        2.04580748      -1.39451301       0.28954807
C        2.90649315      -2.20826124       1.01361300
C        2.63744035      -2.52909250       2.35506771
C        1.46271381      -2.01727786       2.98259980
C        0.57192239      -1.19018036       2.24133221
C       -0.59182189      -0.70701325       2.89137581
C       -0.87982283      -1.01518950       4.22129701
C       -0.00917533      -1.81185744       4.94373554
C        1.14450404      -2.30238763       4.33307819
C        3.59516734      -3.41708387       3.05479144
C        3.29813881      -4.78981154       3.09976753
C        4.15682391      -5.68428819       3.72440475
C        5.33651504      -5.22259075       4.30994319
C        5.68494248      -3.84805780       4.28737702
C        4.79647124      -2.93331212       3.65407934
C        5.14330519      -1.56024701       3.64443790
C        6.32263093      -1.08831366       4.21988325
C        7.19115897      -1.97785736       4.82809134
C        6.87521368      -3.33588119       4.86303133
Br       6.43216859      -6.55080184       5.13220997
H        2.28206598      -1.16032265      -0.74569103
H        3.80094530      -2.59772876       0.52941120
H       -1.30373064      -0.07547677       2.36511265
H       -1.78256170      -0.62824111       4.68640539
H       -0.22076734      -2.05495666       5.98151962
H        1.80630946      -2.92044924       4.93821770
H        2.38370239      -5.16433952       2.64263761
H        3.89875856      -6.74028876       3.74692177
H        4.48512404      -0.82680068       3.18169522
H        6.55609911      -0.02692774       4.19019794
H        8.11358703      -1.62151050       5.27854504
H        7.58650452      -3.99616580       5.35420912
