162
Properties=species:S:1:pos:R:3 pbc="F F F"
C        1.80186260       1.80186260      -1.80186260
C        2.51548118       1.14149332      -2.80260613
C        3.34559202       1.86153291      -3.65095454
C        3.47298637       3.25518209      -3.52314418
C        2.74466155       3.94148545      -2.50615654
C        1.89947017       3.20622136      -1.62745550
C        1.19820534       3.91715295      -0.62092095
C        1.31200014       5.29997279      -0.47440282
C        2.12676646       6.01505425      -1.33430901
C        2.82946516       5.34502279      -2.33519398
C        4.39159274       3.94975537      -4.45540661
C        5.69994293       4.20608849      -4.01139852
C        6.62069775       4.83889754      -4.83563363
C        6.25184196       5.22056117      -6.12635793
C        4.94581078       4.98017632      -6.62410228
C        4.00222270       4.33962220      -5.77172988
C        2.69594962       4.11234003      -6.26941253
C        2.31812145       4.48277741      -7.55964106
C        3.23717658       5.09763766      -8.39200550
C        4.52974179       5.34434701      -7.92974948
H        2.43408092       0.06443268      -2.92789606
H        3.90064902       1.33264785      -4.42450046
H        0.54418440       3.39851105       0.07612460
H        0.76053752       5.81132865       0.31006930
H        2.21984806       7.09295031      -1.23262264
H        3.45467967       5.94534491      -2.99466389
H        6.00262617       3.90919915      -3.00856628
H        7.62472464       5.02757603      -4.46338051
H        1.94124461       3.63688945      -5.64519796
H        1.30642232       4.28915889      -7.90735564
H        2.95420145       5.38939333      -9.39975986
H        5.21601726       5.83223139      -8.61834287
C        7.27522316       5.86698834      -6.90637256
C        8.13230491       6.40837110      -7.55963482
Br       9.51813362       7.28374123      -8.61590463
C       -1.80186260      -1.80186260      -1.80186260
C       -2.67422958      -1.12804864      -2.65730242
C       -3.51656383      -1.84745837      -3.49405726
C       -3.49863259      -3.25261502      -3.50006502
C       -2.60758506      -3.95210791      -2.63261057
C       -1.74860008      -3.21890865      -1.76563830
C       -0.88311869      -3.94461253      -0.90854803
C       -0.85079814      -5.33939211      -0.89618551
C       -1.67960266      -6.05121634      -1.74531072
C       -2.54207875      -5.36668952      -2.60091366
C       -4.43968468      -3.94810884      -4.40896120
C       -5.66506818      -4.37927482      -3.87308695
C       -6.60284297      -5.02397471      -4.66841123
C       -6.33563393      -5.24247833      -6.02064880
C       -5.11662199      -4.82230018      -6.61116720
C       -4.15404761      -4.17020478      -5.78932239
C       -2.93355983      -3.76298121      -6.38116114
C       -2.65846899      -3.96948505      -7.73258588
C       -3.59708863      -4.59547326      -8.53425786
C       -4.80585341      -5.01718609      -7.98079878
H       -2.70772378      -0.04137437      -2.67731152
H       -4.19602565      -1.30872003      -4.15305165
H       -0.21192835      -3.42867840      -0.22596411
H       -0.17540777      -5.86217193      -0.22421718
H       -1.66004421      -7.13771352      -1.74766327
H       -3.17318212      -5.96404085      -3.25746550
H       -5.88865168      -4.21082615      -2.82091377
H       -7.54068642      -5.34985763      -4.22513712
H       -2.16617342      -3.27253646      -5.78462214
H       -1.71094782      -3.64021845      -8.15177059
H       -3.39401180      -4.76042040      -9.58892245
H       -5.51099187      -5.50680321      -8.64879644
C       -7.36916229      -5.91545561      -6.76396616
C       -8.23474229      -6.47907409      -7.38649445
Br      -9.63431195      -7.39039749      -8.39307004
C       -1.80186260       1.80186260       1.80186260
C       -1.80643535       3.16208581       1.49105947
C       -2.57652362       4.04086511       2.24069074
C       -3.36372685       3.57853774       3.30904804
C       -3.37012134       2.18905421       3.63312799
C       -2.57453484       1.28520395       2.87340824
C       -2.59516560      -0.08732498       3.22843863
C       -3.36713729      -0.56753271       4.28677118
C       -4.14689247       0.31012380       5.01911345
C       -4.14884886       1.66627865       4.69455443
C       -4.14430636       4.58077851       4.07166985
C       -3.57666735       5.08787961       5.25288299
C       -4.24291271       6.04114865       6.01116755
C       -5.48915805       6.51303162       5.59657138
C       -6.10282979       6.03750434       4.40975525
C       -5.42008345       5.05288759       3.64060374
C       -6.04240653       4.57278982       2.46250583
C       -7.28392771       5.04202320       2.03458901
C       -7.94443667       6.00546815       2.77691492
C       -7.36339764       6.49311216       3.94732848
H       -1.21029563       3.54834390       0.66777015
H       -2.56678863       5.10075535       1.99025335
H       -2.00104747      -0.81474070       2.68026409
H       -3.35676697      -1.62633362       4.53136353
H       -4.75564323      -0.05300207       5.84277984
H       -4.78085624       2.32230463       5.29152759
H       -2.60279496       4.73224926       5.58534737
H       -3.78072108       6.41225477       6.92270532
H       -5.55946042       3.81079600       1.85307560
H       -7.72884232       4.65124808       1.12284645
H       -8.91169410       6.37936617       2.45229437
H       -7.92083687       7.24702433       4.49873032
C       -6.10026422       7.50206588       6.44625396
C       -6.61206564       8.33038207       7.15786312
Br      -7.43960525       9.66969930       8.30847494
C        1.80186260      -1.80186260       1.80186260
C        1.78893546      -3.16523235       1.50541282
C        2.55767165      -4.04421346       2.25619436
C        3.36090419      -3.57908551       3.31132293
C        3.38524342      -2.18643573       3.62062439
C        2.59116728      -1.28222256       2.85975719
C        2.62989090       0.09364761       3.20003596
C        3.41797457       0.57671005       4.24511123
C        4.19620574      -0.30143120       4.97849278
C        4.18055976      -1.66084918       4.66827300
C        4.13897729      -4.58148950       4.07628793
C        3.57857698      -5.07019346       5.26865952
C        4.24279458      -6.02246884       6.02996549
C        5.47959133      -6.51179593       5.60737379
C        6.08563011      -6.05520707       4.40925220
C        5.40512621      -5.07152673       3.63692184
C        6.01995522      -4.61036814       2.44737881
C        7.25191535      -5.09713526       2.01148931
C        7.91012227      -6.05969164       2.75700583
C        7.33641271      -6.52891199       3.93851358
H        1.18012882      -3.55375608       0.69252477
H        2.53421492      -5.10650137       2.01708104
H        2.03765122       0.82152880       2.65044843
H        3.42125509       1.63806000       4.47860179
H        4.81738423       0.06383361       5.79187037
H        4.81194607      -2.31723868       5.26550372
H        2.61204058      -4.70084140       5.60750961
H        3.78640305      -6.37912514       6.95015298
H        5.53858970      -3.84972710       1.83501522
H        7.69123518      -4.72063179       1.09106989
H        8.86993636      -6.44715750       2.42626079
H        7.89173469      -7.28286558       4.49199125
C        6.08926738      -7.49829493       6.46102175
C        6.59987107      -8.32448785       7.17595191
Br       7.42547406      -9.66037192       8.33193351
C       -0.00445707       0.01189536      -1.78238275
H       -0.66409135       0.67374010      -2.43557963
H        0.65740317      -0.63156657      -2.45157240
C       -0.90989263      -0.90692880      -0.91072765
C        0.90977584       0.90977584      -0.90977584
C       -0.00465871       1.77757030       0.00794375
H       -0.66225468       2.44313916      -0.64384735
H        0.64322798       2.43503045       0.67728295
C       -1.78241447       0.00034974      -0.00472694
H       -2.45427497      -0.65498947       0.64260836
H       -2.43311707       0.67328779      -0.65473579
C       -0.91132561       0.90220522       0.91563759
C       -0.01476271      -0.02253852       1.78660255
H       -0.67934791      -0.69751639       2.42135241
H        0.63392994       0.61504881       2.47327442
C        0.01484550      -1.77751727      -0.01636693
H        0.67870853      -2.42144646      -0.68295456
H       -0.62264859      -2.45592969       0.64226336
C        1.78714474       0.01002794       0.00389507
H        2.44202412       0.67113390       0.66197326
H        2.45385902      -0.65136977      -0.64189061
C        0.91606151      -0.90478549       0.90901405
