170
Properties=species:S:1:pos:R:3 pbc="F F F"
C        1.80184194       1.80184194      -1.80184194
C        3.05942059       1.28309153      -2.12040200
C        3.93193012       2.01704365      -2.91368655
C        3.55397763       3.27348632      -3.39583165
C        2.27793030       3.81907673      -3.09120941
C        1.38250663       3.07263355      -2.27582167
C        0.11748997       3.64103883      -1.98012747
C       -0.26475683       4.89227783      -2.46538924
C        0.60639556       5.61466616      -3.26263231
C        1.85911154       5.08531287      -3.56973322
C        4.50983153       3.98386912      -4.19910237
C        5.30341929       4.59159806      -4.86552945
C        6.29140320       5.39390355      -5.71526855
C        7.04024055       6.04690262      -6.38902381
C        7.91873238       6.83816607      -7.20588785
C        9.17208448       6.29765546      -7.50708949
C       10.06367093       7.00608176      -8.30218376
C        9.70683395       8.26056210      -8.80339292
C        8.44341498       8.84145006      -8.51706781
C        7.53502667       8.11400986      -7.69925187
C        6.27517280       8.69367433      -7.40816540
C        5.90508704       9.94431827      -7.90055819
C        6.78560983      10.65222266      -8.70043362
C        8.03500003      10.10934303      -9.00318398
Br      11.01632794       9.12918827      -9.88529282
H        3.36877930       0.30775100      -1.75249079
H        4.91007930       1.60499813      -3.15299669
H       -0.60051646       3.11098593      -1.35829216
H       -1.24305754       5.29610743      -2.21793092
H        0.31746802       6.58912840      -3.64738050
H        2.51554033       5.68328468      -4.19932717
H        9.45846334       5.32013980      -7.12458156
H       11.03451650       6.57172877      -8.52822371
H        5.55573608       8.16814866      -6.78275544
H        4.93046296      10.35902966      -7.65726784
H        6.50685655      11.62724691      -9.09157019
H        8.69246705      10.70256192      -9.63478711
C       -1.80184194      -1.80184194      -1.80184194
C       -3.04887950      -1.27170107      -2.14233355
C       -3.92064015      -2.00469045      -2.93732971
C       -3.55243421      -3.27156513      -3.39929626
C       -2.28709313      -3.82894154      -3.07218177
C       -1.39253782      -3.08346958      -2.25495444
C       -0.13839955      -3.66363294      -1.93662377
C        0.23420291      -4.92539613      -2.40171701
C       -0.63600866      -5.64688929      -3.20079608
C       -1.87819317      -5.10606450      -3.52989995
C       -4.50711134      -3.98009050      -4.20560118
C       -5.29995080      -4.58626862      -4.87432738
C       -6.28732460      -5.38688562      -5.72636507
C       -7.03589276      -6.03896690      -6.40130733
C       -7.91405727      -6.82947833      -7.21925070
C       -9.15681162      -6.27741685      -7.54260096
C      -10.04730710      -6.98467278      -8.33995657
C       -9.69995524      -8.24956317      -8.82127056
C       -8.44745450      -8.84230407      -8.51217428
C       -7.54020231      -8.11596106      -7.69212504
C       -6.29130933      -8.70737580      -7.37832740
C       -5.93077121      -9.96848340      -7.85070889
C       -6.81013958     -10.67541258      -8.65271394
C       -8.04888423     -10.12105027      -8.97759255
Br     -11.00676605      -9.11543015      -9.90861283
H       -3.35059175      -0.28814567      -1.79028367
H       -4.89058799      -1.58368155      -3.19380458
H        0.57845244      -3.13474570      -1.31246837
H        1.20430434      -5.33809103      -2.13719410
H       -0.35450704      -6.62952501      -3.56994487
H       -2.53422519      -5.70371197      -4.16021503
H       -9.43569956      -5.29178726      -7.17569789
H      -11.00983820      -6.54128459      -8.58334618
H       -5.57312734      -8.18298824      -6.75052460
H       -4.96442985     -10.39206511      -7.59026550
H       -6.53873930     -11.65856476      -9.02836960
H       -8.70587063     -10.71395777      -9.60998768
C       -1.80184194       1.80184194       1.80184194
C       -1.38919039       3.12901753       1.94470619
C       -2.12667217       4.00384239       2.73214575
C       -3.28240537       3.55982821       3.38106202
C       -3.72590185       2.21681101       3.24550358
C       -2.97157663       1.31621701       2.44316821
C       -3.43057050      -0.02056950       2.32865527
C       -4.58741839      -0.46473340       2.97022524
C       -5.32244803       0.41471123       3.74653477
C       -4.89670909       1.73539440       3.88205414
C       -3.98933652       4.51341794       4.19004856
C       -4.58521904       5.29923489       4.87609286
C       -5.36679361       6.27362008       5.76016160
C       -6.00613426       7.01349802       6.45653470
C       -6.79029169       7.88732854       7.28516608
C       -6.35386088       9.20895317       7.41401538
C       -7.07349037      10.10788849       8.19055759
C       -8.23669477       9.69117786       8.84291634
C       -8.70912240       8.35661290       8.73619755
C       -7.96684046       7.43848896       7.94295899
C       -8.43373077       6.10465939       7.83862237
C       -9.59210537       5.67404835       8.48380978
C      -10.31873682       6.56685539       9.25267389
C       -9.88354755       7.88688651       9.37709298
Br      -9.13598858      11.02078870       9.87403176
H       -0.49205962       3.48967897       1.44728249
H       -1.79453289       5.03440712       2.83913411
H       -2.88676197      -0.74759911       1.72959877
H       -4.90885990      -1.49707766       2.85919856
H       -6.22606185       0.07930973       4.24860533
H       -5.50140084       2.39623123       4.50052012
H       -5.45123680       9.54445815       6.90748976
H       -6.72149941      11.13276053       8.28020904
H       -7.88989177       5.37320981       7.24353861
H       -9.92136504       4.64337108       8.38202434
H      -11.22451504       6.24267927       9.75847934
H      -10.48703293       8.55108796       9.99169518
C        1.80184194      -1.80184194       1.80184194
C        1.40168409      -3.13465966       1.92657037
C        2.14008870      -4.00999400       2.71257761
C        3.28429285      -3.56083366       3.37816909
C        3.71505006      -2.21193232       3.26123406
C        2.95968806      -1.31085025       2.46042354
C        3.40578774       0.03176115       2.36462968
C        4.55118120       0.48115989       3.02288892
C        5.28729807      -0.39870235       3.79769360
C        4.87406241      -1.72508721       3.91500801
C        3.99275320      -4.51546788       4.18458194
C        4.58969299      -5.30221065       4.86864316
C        5.37222690      -6.27765081       5.75069758
C        6.01203049      -7.01811651       6.44601998
C        6.79666727      -7.89240415       7.27371488
C        6.37282009      -9.21977142       7.38423791
C        7.09374069     -10.11928467       8.15891110
C        8.24566609      -9.69738342       8.82773945
C        8.70514041      -8.35693560       8.73985685
C        7.96154184      -7.43829588       7.94845069
C        8.41546241      -6.09866589       7.86288423
C        9.56248712      -5.66284065       8.52463573
C       10.29042435      -6.55607293       9.29176882
C        9.86784786      -7.88178746       9.39789172
Br       9.14810793     -11.02833121       9.85436989
H        0.51360525      -3.49938009       1.41603575
H        1.81769319      -5.04502012       2.80536081
H        2.86062970       0.75935078       1.76748271
H        4.86290339       1.51789661       2.92597402
H        6.18207617      -0.05922053       4.31268021
H        5.47920047      -2.38606251       4.53288920
H        5.47907899      -9.55929966       6.86480605
H        6.75161600     -11.14864296       8.23421002
H        7.87018623      -5.36669880       7.26975516
H        9.88194811      -4.62778653       8.43702582
H       11.18744565      -6.22783199       9.81039601
H       10.47185516      -8.54609899      10.01186192
C       -0.00445707       0.01189536      -1.78238275
H       -0.66409135       0.67374010      -2.43557963
H        0.65740317      -0.63156657      -2.45157240
C       -0.90989263      -0.90692880      -0.91072765
C        0.90977584       0.90977584      -0.90977584
C       -0.00465871       1.77757030       0.00794375
H       -0.66225468       2.44313916      -0.64384735
H        0.64322798       2.43503045       0.67728295
C       -1.78241447       0.00034974      -0.00472694
H       -2.45427497      -0.65498947       0.64260836
H       -2.43311707       0.67328779      -0.65473579
C       -0.91132561       0.90220522       0.91563759
C       -0.01476271      -0.02253852       1.78660255
H       -0.67934791      -0.69751639       2.42135241
H        0.63392994       0.61504881       2.47327442
C        0.01484550      -1.77751727      -0.01636693
H        0.67870853      -2.42144646      -0.68295456
H       -0.62264859      -2.45592969       0.64226336
C        1.78714474       0.01002794       0.00389507
H        2.44202412       0.67113390       0.66197326
H        2.45385902      -0.65136977      -0.64189061
C        0.91606151      -0.90478549       0.90901405
