178
Properties=species:S:1:pos:R:3 pbc="F F F"
C        1.77046797       1.77046797      -1.77046797
C        1.86997350       1.49271621      -3.16822195
H        1.33281562       0.65719977      -3.60414010
N        2.65131418       2.24704293      -4.02330893
C        2.80898760       1.81713595      -5.43680406
C        3.85663495       0.69270614      -5.61600732
N        5.24561204       1.12679651      -5.34169495
C        5.77084054       0.94870780      -4.07521431
H        5.15985676       0.39919533      -3.36659168
C        6.99532527       1.55576497      -3.66027140
Br       7.55493925       1.36663745      -1.90437122
C        7.75802801       2.38653171      -4.61192585
O        8.79589508       2.96484860      -4.30808726
C        7.19510102       2.48888394      -5.98335797
C        5.96645952       1.86520262      -6.31431459
C        5.52211600       2.02287137      -7.64075267
C        6.24782795       2.76724795      -8.58125678
C        7.44283899       3.37813757      -8.22437084
C        7.91827654       3.23976626      -6.92622491
C        3.38937272       3.35225247      -3.52192622
C        3.36601095       3.67319838      -2.14142839
C        2.54195424       2.88629531      -1.18769146
O        2.51064719       3.15885094       0.00687674
C        4.11760150       4.73965107      -1.61604440
C        4.90575798       5.52028002      -2.45192203
C        4.93107211       5.24633089      -3.81157707
C        4.17751969       4.18702905      -4.33570509
H        2.99346634       2.65236346      -6.11714141
H        1.84314529       1.41470641      -5.77385537
H        3.77186281       0.25848757      -6.61828641
H        3.59972376      -0.13894564      -4.94537388
H        4.60455449       1.56635917      -7.99599295
H        5.87635307       2.86339568      -9.59939726
H        8.00653596       3.95488688      -8.95343377
H        8.85651982       3.71563365      -6.64557361
H        4.09050585       4.95908495      -0.55004731
H        5.49372982       6.33859378      -2.04437430
H        5.54309962       5.85373322      -4.47508514
H        4.24928605       4.04399048      -5.40738072
C       -1.77046797      -1.77046797      -1.77046797
C       -2.98968602      -2.29704938      -1.24417627
H       -3.28760251      -2.08325264      -0.22330034
N       -3.83313314      -3.10381554      -1.98471737
C       -5.01418871      -3.72108624      -1.32765267
C       -4.66233690      -4.98914513      -0.51386638
N       -4.23088204      -6.13118773      -1.35203373
C       -2.88240376      -6.32251159      -1.58984729
H       -2.19608892      -5.67249897      -1.05705588
C       -2.39943861      -7.23601995      -2.57590308
Br      -0.58054831      -7.33067306      -2.91472654
C       -3.35810190      -8.03521075      -3.36317292
O       -3.01086933      -8.80902450      -4.24893711
C       -4.79283049      -7.85240219      -3.02211026
C       -5.19321853      -6.91592110      -2.03683710
C       -6.57572015      -6.82101454      -1.78900534
C       -7.50844019      -7.60045967      -2.48743283
C       -7.08725529      -8.50102647      -3.45706565
C       -5.73004761      -8.62873782      -3.72548227
C       -3.50407258      -3.43268602      -3.32679282
C       -2.29677723      -2.97332683      -3.91053366
C       -1.36073179      -2.10672075      -3.14848847
O       -0.31696841      -1.69987634      -3.64577664
C       -1.93192140      -3.31657425      -5.22480132
C       -2.76293736      -4.11910582      -5.99591686
C       -3.96283303      -4.56489841      -5.46124864
C       -4.32883581      -4.21797625      -4.15344177
H       -5.83959327      -3.90276255      -2.02061538
H       -5.42481208      -2.98720271      -0.61969229
H       -5.50611956      -5.26897854       0.12646131
H       -3.86213788      -4.74120721       0.19719308
H       -6.97886017      -6.14870629      -1.03934014
H       -8.56928725      -7.50420732      -2.26565144
H       -7.80997190      -9.10636697      -3.99851774
H       -5.39793022      -9.33646823      -4.48332861
H       -0.99394028      -2.95927552      -5.64642230
H       -2.47647883      -4.39189321      -7.00832586
H       -4.62203425      -5.19170381      -6.05817992
H       -5.28332944      -4.60286150      -3.81446631
C       -1.77046797       1.77046797       1.77046797
C       -3.18893982       1.60424826       1.73772358
H       -3.64276031       0.86510677       1.08628841
N       -4.04605371       2.36948661       2.50612571
C       -5.51348331       2.22992905       2.31951525
C       -6.04789287       3.01770766       1.09974788
N       -5.96597346       4.48752128       1.26060876
C       -4.85722143       5.15854466       0.77899656
H       -4.14200216       4.57352000       0.21012160
C       -4.58262629       6.52114637       1.10758898
Br      -3.00618130       7.29809328       0.52167333
C       -5.51857652       7.26737138       1.97053767
O       -5.32263371       8.42653162       2.31966561
C       -6.73403669       6.53006828       2.40323797
C       -6.92880077       5.17321161       2.04396435
C       -8.11352338       4.56797295       2.50424371
C       -9.04511249       5.26435676       3.28686344
C       -8.82102909       6.59017213       3.63414618
C       -7.66647362       7.22480200       3.19299208
C       -3.52382868       3.36249412       3.37722862
C       -2.12929399       3.60787432       3.44346941
C       -1.17356826       2.81026486       2.63210789
O        0.03436223       3.01088627       2.68609735
C       -1.59208879       4.61068905       4.27051913
C       -2.42776289       5.39022233       5.05997482
C       -3.79524240       5.15839523       5.03534245
C       -4.32978446       4.15515607       4.21531332
H       -6.08073751       2.45638767       3.22584603
H       -5.72792563       1.16744947       2.13633197
H       -7.07262836       2.70438020       0.87162823
H       -5.47644949       2.72003301       0.20966951
H       -8.36258808       3.53987791       2.26444062
H       -9.95277359       4.76575265       3.62061977
H       -9.54342901       7.13105192       4.24037569
H       -7.49067549       8.26513322       3.46191835
H       -0.51794051       4.78624205       4.29545554
H       -2.01330144       6.17131698       5.69207947
H       -4.45799882       5.76175113       5.65216803
H       -5.40588452       4.03593586       4.25883687
C        1.77046797      -1.77046797       1.77046797
C        1.67271786      -3.19186304       1.66633077
H        0.97236843      -3.64733970       0.97444737
N        2.43735914      -4.04895144       2.43535545
C        2.18514669      -5.51157139       2.36620954
C        0.97923883      -5.96086323       3.22524635
N        1.20580957      -5.82586525       4.68242868
C        0.79895545      -4.67109471       5.32471249
H        0.23537390      -3.95679092       4.73347894
C        1.19627119      -4.35528800       6.65980245
Br       0.70892653      -2.72486580       7.39215558
C        2.05126135      -5.29588181       7.40934242
O        2.45719142      -5.06778086       8.54385866
C        2.40210253      -6.55779882       6.70744160
C        1.97766701      -6.79237135       5.37593838
C        2.36292396      -8.01938182       4.80343426
C        3.13577941      -8.95423578       5.50631750
C        3.54812043      -8.69115284       6.80607414
C        3.18197493      -7.49387063       7.40842215
C        3.37060851      -3.52417511       3.36876780
C        3.50419191      -2.12486741       3.55157841
C        2.69931724      -1.16883151       2.74779226
O        2.81113584       0.04289031       2.89437586
C        4.39449523      -1.58285869       4.49594305
C        5.18163890      -2.41885770       5.27746343
C        5.09127479      -3.79237678       5.10532850
C        4.20807056      -4.33204357       4.16013970
H        3.07636134      -6.10720644       2.57940343
H        1.94823598      -5.76126025       1.32221084
H        0.69627841      -6.98689519       2.96546319
H        0.10138429      -5.36464985       2.94011787
H        2.06954254      -8.29981412       3.79754995
H        3.41060343      -9.89491734       5.03362524
H        4.14681643      -9.41602114       7.35201905
H        3.50195551      -7.28731811       8.42845345
H        4.47077486      -0.50447207       4.62439118
H        5.86287080      -2.00013275       6.01369435
H        5.70564892      -4.45560361       5.71066545
H        4.20245251      -5.41299372       4.08521102
C       -0.00445707       0.01189536      -1.78238275
H       -0.66409135       0.67374010      -2.43557963
H        0.65740317      -0.63156657      -2.45157240
C       -0.90989263      -0.90692880      -0.91072765
C        0.90977584       0.90977584      -0.90977584
C       -0.00465871       1.77757030       0.00794375
H       -0.66225468       2.44313916      -0.64384735
H        0.64322798       2.43503045       0.67728295
C       -1.78241447       0.00034974      -0.00472694
H       -2.45427497      -0.65498947       0.64260836
H       -2.43311707       0.67328779      -0.65473579
C       -0.91132561       0.90220522       0.91563759
C       -0.01476271      -0.02253852       1.78660255
H       -0.67934791      -0.69751639       2.42135241
H        0.63392994       0.61504881       2.47327442
C        0.01484550      -1.77751727      -0.01636693
H        0.67870853      -2.42144646      -0.68295456
H       -0.62264859      -2.45592969       0.64226336
C        1.78714474       0.01002794       0.00389507
H        2.44202412       0.67113390       0.66197326
H        2.45385902      -0.65136977      -0.64189061
C        0.91606151      -0.90478549       0.90901405
