178
Properties=species:S:1:pos:R:3 pbc="F F F"
C        1.82450177       1.82450177      -1.82450177
N        2.03688602       1.21385262      -3.13801600
C        1.22541608       1.54787122      -4.21370873
C        1.38302276       1.20579625      -5.50194366
C        0.48713819       1.64484029      -6.57447331
C        0.21205375       0.90584151      -7.66159537
N       -0.58459600       1.24669697      -8.74627242
C       -0.71177440       0.34322861      -9.89131846
Br      -2.31484249      -0.75686103      -9.73046927
C       -1.25759349       2.48617910      -8.73998597
C       -1.07429921       3.36716646      -7.65499002
C       -0.16029897       2.99606454      -6.54397695
O        0.04451447       3.79802813      -5.63467380
C       -1.73104786       4.60786546      -7.59456119
C       -2.58391642       4.99747485      -8.62163525
C       -2.77794568       4.15009434      -9.70510269
C       -2.12531033       2.91180554      -9.76176767
C        2.59093883       0.36745670      -5.79288995
O        2.91231764       0.06078243      -6.93976666
C        3.41531127      -0.10398870      -4.65006015
C        3.11751067       0.33146058      -3.34300931
C        3.92753308      -0.16591424      -2.30754048
C        4.99034153      -1.04266264      -2.56296409
C        5.27194887      -1.44538241      -3.86269295
C        4.48467904      -0.97816405      -4.90876713
H        2.75197588       2.03371604      -1.28335805
H        1.29008181       2.77751987      -1.91049338
H        0.37970050       2.16424778      -3.91309297
H        0.64207633      -0.08929834      -7.76268892
H        0.12054730      -0.36778384      -9.93761769
H       -0.74106433       0.85715792     -10.85637875
H       -1.57686017       5.27078204      -6.74475662
H       -3.09351808       5.95664608      -8.57456177
H       -3.44353442       4.44705545     -10.51171108
H       -2.33273349       2.29352384     -10.62956230
H        3.74928772       0.09376110      -1.26886840
H        5.59494928      -1.41315686      -1.73781530
H        6.09700492      -2.12522238      -4.06079249
H        4.70019046      -1.29549989      -5.92696569
C       -1.82450177      -1.82450177      -1.82450177
N       -3.16743926      -1.96306330      -1.25825209
C       -4.19711360      -1.12530571      -1.66457673
C       -5.50252726      -1.22065659      -1.36757882
C       -6.52177011      -0.30284729      -1.88183439
C       -7.62437816       0.04182835      -1.19694081
N       -8.66334670       0.86485860      -1.60988530
C       -9.83579872       1.07048252      -0.75745647
Br      -9.65383386       2.70824498       0.28682313
C       -8.58391002       1.48801639      -2.87267795
C       -7.47446790       1.22950716      -3.70289653
C       -6.41494544       0.28949268      -3.25428976
O       -5.48476137       0.01922432      -4.01167934
C       -7.34156034       1.83434955      -4.96416799
C       -8.31896708       2.70942998      -5.42565658
C       -9.42519393       2.97728274      -4.62934016
C       -9.55409097       2.37631102      -3.37048293
C       -5.87204229      -2.38292989      -0.49631330
O       -7.04139364      -2.64853219      -0.22294090
C       -4.78102176      -3.23071502       0.05035405
C       -3.44779925      -2.99974952      -0.34443178
C       -2.46439625      -3.82813811       0.22337504
C       -2.79420022      -4.84535299       1.12891025
C       -4.11824164      -5.06170896       1.49069119
C       -5.11426437      -4.25445651       0.95343876
H       -1.31263590      -2.77922427      -1.97718979
H       -1.85344956      -1.32500086      -2.79964464
H       -3.84052198      -0.31635694      -2.30016233
H       -7.77973379      -0.34471896      -0.19101416
H       -9.94149626       0.26902290      -0.01790779
H      -10.77888863       1.11598969      -1.30957341
H       -6.47404802       1.62232955      -5.58696003
H       -8.21578802       3.17888722      -6.40078897
H      -10.19330154       3.66067531      -4.98260588
H      -10.43579494       2.64041610      -2.79497381
H       -1.41047543      -3.69953132      -0.00191047
H       -2.00796295      -5.46567097       1.55402620
H       -4.37405343      -5.85140832       2.19288672
H       -6.15137904      -4.41878555       1.23850832
C       -1.82450177       1.82450177       1.82450177
N       -1.89504752       1.30303676       3.19067037
C       -1.03697328       1.77580493       4.17421782
C       -1.07549288       1.52339820       5.49187159
C       -0.14176869       2.10639281       6.45829029
C        0.26617768       1.47466657       7.57100173
N        1.10962899       1.95386703       8.56413534
C        1.38726117       1.15247716       9.75755668
Br       3.05457473       0.16047774       9.55286275
C        1.68318607       3.23405136       8.41770629
C        1.35576053       4.01369617       7.28992163
C        0.39605184       3.49401804       6.28177632
O        0.06583704       4.20704507       5.33600837
C        1.90920151       5.28976924       7.09081105
C        2.80070353       5.81703825       8.01885896
C        3.13611238       5.07146343       9.14190031
C        2.58630818       3.79779143       9.33677963
C       -2.19154234       0.62585673       5.93388641
O       -2.40573870       0.38610314       7.12102489
C       -3.05667439       0.01033821       4.89437012
C       -2.88725448       0.36416141       3.54056467
C       -3.72846168      -0.26786665       2.60856430
C       -4.69978606      -1.19598160       3.00683851
C       -4.85614044      -1.51666318       4.34978216
C       -4.03448544      -0.91543353       5.29623021
H       -2.80155621       1.92478391       1.34270984
H       -1.36015268       2.81700733       1.80093506
H       -0.26475409       2.42601948       3.76626769
H       -0.07776242       0.46210226       7.77560222
H        0.61748991       0.38955492       9.91831614
H        1.44574548       1.73984674      10.67837108
H        1.64426741       5.87270229       6.21024361
H        3.23040333       6.80366327       7.86442983
H        3.83275811       5.47628442       9.87170581
H        2.90203670       3.26442862      10.22796073
H       -3.64527550      -0.07674832       1.54339003
H       -5.33145756      -1.67100402       2.25915419
H       -5.61025063      -2.23639744       4.65872184
H       -4.15176061      -1.16812728       6.34802293
C        1.82450177      -1.82450177       1.82450177
N        2.86665392      -2.48533823       1.03676250
C        4.13283904      -1.92679169       0.92736530
C        5.23102941      -2.47518349       0.38454976
C        6.53819091      -1.81484398       0.35341690
C        7.43176586      -1.98272343      -0.63499866
N        8.70520720      -1.43911087      -0.73594468
C        9.58151447      -1.79483643      -1.85357823
Br       9.47072395      -0.46019345      -3.27215165
C        9.15293305      -0.55128728       0.26435125
C        8.31630225      -0.26854270       1.36301232
C        6.98653477      -0.92242958       1.47077817
O        6.29137076      -0.72102954       2.46481609
C        8.70988342       0.61805322       2.37954859
C        9.95272060       1.23941671       2.32188979
C       10.79869159       0.97399134       1.25255110
C       10.40300057       0.09273514       0.23799745
C        5.04735154      -3.86072798      -0.15679404
O        5.98796151      -4.52053063      -0.59562540
C        3.67985456      -4.44197603      -0.16044786
C        2.61610914      -3.73740108       0.43847033
C        1.34634112      -4.33785116       0.38496704
C        1.14850790      -5.58486868      -0.22273361
C        2.21699330      -6.26565601      -0.79338989
C        3.48446164      -5.69551686      -0.76469638
H        1.17952973      -2.52021073       2.36930950
H        2.25802675      -1.14912849       2.57093983
H        4.17737840      -0.92592034       1.35374252
H        7.18534324      -2.61589437      -1.48577071
H        9.27500943      -2.73691254      -2.32154082
H       10.63146950      -1.91098559      -1.56998275
H        8.04551207       0.82399666       3.21716308
H       10.25703546       1.92669961       3.10735391
H       11.77158707       1.45617978       1.19982482
H       11.10656474      -0.05849623      -0.57470832
H        0.46708318      -3.85058066       0.79425338
H        0.15152960      -6.01949341      -0.25141529
H        2.06344017      -7.23350871      -1.26437385
H        4.32206014      -6.22439496      -1.21479884
C       -0.00445707       0.01189536      -1.78238275
H       -0.66409135       0.67374010      -2.43557963
H        0.65740317      -0.63156657      -2.45157240
C       -0.90989263      -0.90692880      -0.91072765
C        0.90977584       0.90977584      -0.90977584
C       -0.00465871       1.77757030       0.00794375
H       -0.66225468       2.44313916      -0.64384735
H        0.64322798       2.43503045       0.67728295
C       -1.78241447       0.00034974      -0.00472694
H       -2.45427497      -0.65498947       0.64260836
H       -2.43311707       0.67328779      -0.65473579
C       -0.91132561       0.90220522       0.91563759
C       -0.01476271      -0.02253852       1.78660255
H       -0.67934791      -0.69751639       2.42135241
H        0.63392994       0.61504881       2.47327442
C        0.01484550      -1.77751727      -0.01636693
H        0.67870853      -2.42144646      -0.68295456
H       -0.62264859      -2.45592969       0.64226336
C        1.78714474       0.01002794       0.00389507
H        2.44202412       0.67113390       0.66197326
H        2.45385902      -0.65136977      -0.64189061
C        0.91606151      -0.90478549       0.90901405
