186
Properties=species:S:1:pos:R:3 pbc="F F F"
C        1.82450177       1.82450177      -1.82450177
N        2.03688602       1.21385262      -3.13801600
C        1.22541608       1.54787122      -4.21370873
C        1.38302276       1.20579625      -5.50194366
C        0.48713819       1.64484029      -6.57447331
C        0.21205375       0.90584151      -7.66159537
N       -0.58459600       1.24669697      -8.74627242
C       -0.71177440       0.34322861      -9.89131846
C       -1.25759349       2.48617910      -8.73998597
C       -1.07429921       3.36716646      -7.65499002
C       -0.16029897       2.99606454      -6.54397695
O        0.04451447       3.79802813      -5.63467380
C       -1.73104786       4.60786546      -7.59456119
C       -2.58391642       4.99747485      -8.62163525
C       -2.77794568       4.15009434      -9.70510269
C       -2.12531033       2.91180554      -9.76176767
C        2.59093883       0.36745670      -5.79288995
O        2.91231764       0.06078243      -6.93976666
C        3.41531127      -0.10398870      -4.65006015
C        3.11751067       0.33146058      -3.34300931
C        3.92753308      -0.16591424      -2.30754048
C        4.99034153      -1.04266264      -2.56296409
C        5.27194887      -1.44538241      -3.86269295
C        4.48467904      -0.97816405      -4.90876713
H        2.75197588       2.03371604      -1.28335805
H        1.29008181       2.77751987      -1.91049338
H        0.37970050       2.16424778      -3.91309297
H        0.64207633      -0.08929834      -7.76268892
H        0.12054730      -0.36778384      -9.93761769
H       -0.74106433       0.85715792     -10.85637875
H       -1.57686017       5.27078204      -6.74475662
H       -3.09351808       5.95664608      -8.57456177
H       -3.44353442       4.44705545     -10.51171108
H       -2.33273349       2.29352384     -10.62956230
H        3.74928772       0.09376110      -1.26886840
H        5.59494928      -1.41315686      -1.73781530
H        6.09700492      -2.12522238      -4.06079249
H        4.70019046      -1.29549989      -5.92696569
C       -1.89505011      -0.46878265      -9.77259054
C       -2.88604351      -1.14884208      -9.67315591
Br      -4.48839602      -2.24844067      -9.51237852
C       -1.82450177      -1.82450177      -1.82450177
N       -1.15160177      -3.08194212      -2.15521076
C       -1.36932463      -4.22282390      -1.39484751
C       -0.96203287      -5.47527817      -1.65345162
C       -1.27924740      -6.62464549      -0.80255891
C       -0.46115482      -7.67737342      -0.64096238
N       -0.68609087      -8.82675769       0.10447517
C        0.28995731      -9.91803634       0.10530636
C       -1.87881970      -8.93864629       0.84889441
C       -2.83244885      -7.90244333       0.78703490
C       -2.58634792      -6.71794948      -0.07544511
O       -3.45218208      -5.85051536      -0.17451895
C       -4.03062827      -7.95950559       1.51875507
C       -4.30400583      -9.05791604       2.32672819
C       -3.38327052     -10.09535395       2.40137311
C       -2.18745603     -10.03493817       1.67413131
C       -0.18580060      -5.64054856      -2.92493632
O        0.16750055      -6.74469106      -3.33567622
C        0.16403421      -4.42334451      -3.70207243
C       -0.32855097      -3.16635668      -3.29707291
C        0.05439245      -2.05532543      -4.06822634
C        0.87593775      -2.19139413      -5.19518659
C        1.33650375      -3.44411375      -5.58164942
C        0.98279707      -4.56245735      -4.83562184
H       -2.12356816      -1.24355472      -2.70192708
H       -2.73511176      -2.00202154      -1.24096177
H       -1.94785758      -4.01242000      -0.49676367
H        0.50910847      -7.68977291      -1.13480247
H        0.94852368      -9.86990276      -0.76900207
H       -0.16292233     -10.91363724       0.10408722
H       -4.75121266      -7.14557657       1.45811074
H       -5.23020839      -9.10178636       2.89430498
H       -3.58924887     -10.95716737       3.03118412
H       -1.50691191     -10.87276533       1.78932459
H       -0.25469722      -1.04752114      -3.80969885
H        1.15792057      -1.31008872      -5.76743958
H        1.97348160      -3.54960811      -6.45644852
H        1.34576399      -5.54401511      -5.13340515
C        1.16653765      -9.81873450       1.24343907
C        1.90067367      -9.73556920       2.19662521
Br       3.08770954      -9.60109796       3.73784659
C       -1.82450177       1.82450177       1.82450177
N       -1.05259322       2.91730493       2.41885649
C       -1.00940114       4.16527102       1.81232387
C       -0.48812049       5.30127691       2.30136527
C       -0.52818521       6.58367741       1.59458917
C        0.43217331       7.51713831       1.69452562
N        0.46718684       8.77259945       1.10296078
C        1.56386038       9.70025254       1.38638050
C       -0.57954793       9.15193397       0.23708969
C       -1.65614900       8.26724701       0.02446127
C       -1.69201854       6.95932793       0.72839605
O       -2.66643761       6.22259587       0.58818292
C       -2.71707802       8.59197844      -0.83767768
C       -2.72692069       9.81250096      -1.50422797
C       -1.68055740      10.70484686      -1.30815291
C       -0.62171974      10.37774286      -0.45119972
C        0.10816455       5.18766151       3.67178852
O        0.53529665       6.16669726       4.28146613
C        0.18238680       3.84333699       4.30043253
C       -0.40169893       2.73403430       3.65624733
C       -0.28059069       1.48977512       4.29879351
C        0.37759251       1.35929535       5.52894012
C        0.93243954       2.47146343       6.15023553
C        0.83726333       3.71541125       5.53713420
H       -2.32043502       1.18659228       2.56202265
H       -2.60968646       2.20639248       1.16201612
H       -1.47219427       4.15806629       0.82678069
H        1.31321891       7.32424692       2.30443890
H        2.07569731       9.44514685       2.32093161
H        1.24630371      10.74308733       1.47568871
H       -3.53656350       7.89135570      -0.98924070
H       -3.54677228      10.06353496      -2.17261747
H       -1.68053238      11.66069669      -1.82599696
H        0.16952306      11.11462578      -0.35475006
H       -0.67436998       0.57936992       3.85817731
H        0.45807224       0.38052725       5.99715271
H        1.44260589       2.37016185       7.10501907
H        1.27479971       4.58717485       6.01928112
C        2.57781083       9.61949296       0.36707566
C        3.42699434       9.55185680      -0.48659214
Br       4.80005225       9.44249486      -1.86690078
C        1.82450177      -1.82450177       1.82450177
N        2.10236715      -1.17805625       3.10833124
C        1.31782426      -1.44777730       4.22139447
C        1.53113995      -1.06854861       5.49107411
C        0.65866580      -1.44036516       6.60742083
C        0.44609185      -0.65644343       7.67695534
N       -0.32356591      -0.93320530       8.79873400
C       -0.38091613       0.01182292       9.91551172
C       -1.03736680      -2.14823277       8.85770561
C       -0.92114202      -3.07073935       7.79825994
C       -0.03416901      -2.76869621       6.64521531
O        0.11225287      -3.60715009       5.75781343
C       -1.62062266      -4.28935004       7.80265140
C       -2.45005005      -4.61479095       8.87045278
C       -2.57817168      -3.72553284       9.92989020
C       -1.88300999      -2.50931316       9.92195971
C        2.77568362      -0.26316939       5.71243247
O        3.14652088       0.07032806       6.83667391
C        3.57538232       0.14113407       4.52713447
C        3.21826883      -0.32714903       3.24656270
C        4.00820591       0.10713211       2.16808552
C        5.10786467       0.95470020       2.35747850
C        5.44745858       1.39060626       3.63240709
C        4.68162034       0.98601520       4.71967698
H        2.72524180      -2.08355359       1.26025457
H        1.26186397      -2.75510052       1.96113058
H        0.44213657      -2.04427696       3.97062772
H        0.91231732       0.32607592       7.72922551
H        0.47577111       0.69482495       9.90943500
H       -0.39400450      -0.46829747      10.89817937
H       -1.51807386      -4.98518395       6.97156840
H       -2.99269750      -5.55683306       8.87355420
H       -3.22505495      -3.97225518      10.76803188
H       -2.03960126      -1.85562439      10.77432952
H        3.78564109      -0.18075132       1.14552481
H        5.69565106       1.27635745       1.50031411
H        6.30108910       2.04778833       3.77927426
H        4.94262558       1.32952282       5.71855350
C       -1.53982847       0.85978732       9.80837357
C       -2.51041754       1.56995750       9.71864536
Br      -4.07977799       2.71824263       9.57356245
C       -0.00445707       0.01189536      -1.78238275
H       -0.66409135       0.67374010      -2.43557963
H        0.65740317      -0.63156657      -2.45157240
C       -0.90989263      -0.90692880      -0.91072765
C        0.90977584       0.90977584      -0.90977584
C       -0.00465871       1.77757030       0.00794375
H       -0.66225468       2.44313916      -0.64384735
H        0.64322798       2.43503045       0.67728295
C       -1.78241447       0.00034974      -0.00472694
H       -2.45427497      -0.65498947       0.64260836
H       -2.43311707       0.67328779      -0.65473579
C       -0.91132561       0.90220522       0.91563759
C       -0.01476271      -0.02253852       1.78660255
H       -0.67934791      -0.69751639       2.42135241
H        0.63392994       0.61504881       2.47327442
C        0.01484550      -1.77751727      -0.01636693
H        0.67870853      -2.42144646      -0.68295456
H       -0.62264859      -2.45592969       0.64226336
C        1.78714474       0.01002794       0.00389507
H        2.44202412       0.67113390       0.66197326
H        2.45385902      -0.65136977      -0.64189061
C        0.91606151      -0.90478549       0.90901405
