134
Properties=species:S:1:pos:R:3 pbc="F F F"
C        1.82233616       1.82233616      -1.82233616
C        1.10500002       2.24992452      -3.09332653
C       -0.12008681       3.15154812      -2.90154072
N       -0.73126479       3.51122127      -4.16283183
C       -1.44368403       2.57626913      -4.88180776
O       -1.59634922       1.42952517      -4.48661616
N       -1.86410786       3.10439101      -6.08211678
C       -2.53130568       2.43248352      -7.12543765
C       -3.04062923       1.13474332      -7.01580149
C       -3.65632418       0.52150407      -8.11153028
C       -3.76550099       1.20826040      -9.31291775
F       -4.34384116       0.61532548     -10.36492314
C       -3.28061615       2.50305265      -9.43768469
C       -2.66806149       3.11720049      -8.34238069
H        2.69414197       1.20872663      -2.07010405
H        2.15838663       2.66082696      -1.20893694
H        0.81204262       1.34816445      -3.64334450
H        1.83250976       2.76237028      -3.73866895
H       -0.87954243       2.71602368      -2.24672459
H       -1.05810590       4.46313686      -4.22368183
H       -1.50913618       4.02443996      -6.29469706
H       -2.97305588       0.57062320      -6.09050506
H       -4.04360683      -0.48913964      -8.03026064
H       -3.37586847       3.02298296     -10.38545384
H       -2.28699474       4.12807512      -8.45998123
C        0.26838918       4.40524490      -2.30914662
C        0.59373783       5.45521596      -1.81301656
Br       1.11979907       7.15293036      -1.01081622
C       -1.82233616      -1.82233616      -1.82233616
C       -1.42913051      -1.73056901      -3.28855155
C       -0.03334646      -2.25645376      -3.64320180
N        0.24881671      -2.13445199      -5.05715303
C        0.49612642      -0.89794537      -5.61257391
O        0.49914542       0.12641096      -4.94534849
N        0.65572914      -1.00167155      -6.97645752
C        0.82495780       0.04864345      -7.90021675
C        1.04360077       1.38040205      -7.53391842
C        1.16265015       2.37274433      -8.51210464
C        1.06732300       2.03116279      -9.85416294
F        1.16879657       2.98407071     -10.78927475
C        0.86638168       0.71259834     -10.23910121
C        0.75033337      -0.27958338      -9.26226968
H       -2.84174329      -1.44953666      -1.68169270
H       -1.77131264      -2.83633088      -1.42050701
H       -1.51586513      -0.68422937      -3.60345706
H       -2.18038783      -2.27606827      -3.87709288
H        0.76743304      -1.77537767      -3.07526122
H        0.74616361      -2.91216777      -5.46270864
H        0.46723995      -1.91420224      -7.36303855
H        1.12460227       1.68103806      -6.49371271
H        1.32301140       3.40807062      -8.22859618
H        0.79483374       0.46611558     -11.29351766
H        0.58525508      -1.30527467      -9.58104201
C        0.05470425      -3.66754397      -3.36994098
C        0.12844671      -4.84933203      -3.14108504
Br       0.24768204      -6.76018336      -2.77104434
C       -1.82233616       1.82233616       1.82233616
C       -3.18031452       2.07992192       1.18801462
C       -4.07855249       0.85128741       1.00316212
N       -5.34853007       1.19398439       0.40027384
C       -5.41610603       1.53207794      -0.93379112
O       -4.42747917       1.54509792      -1.65278498
N       -6.69775085       1.90124343      -1.27659435
C       -7.14083076       2.40240042      -2.51661569
C       -6.35389228       2.42832746      -3.67230415
C       -6.85395188       2.97921795      -4.85645967
C       -8.14083366       3.49889081      -4.88404732
F       -8.61383836       4.03751005      -6.01494094
C       -8.94375122       3.46835800      -3.75198803
C       -8.44563390       2.91541041      -2.56952462
H       -1.27467657       2.76324852       1.93504756
H       -1.88305339       1.34338595       2.80171120
H       -3.02082684       2.56476479       0.21795994
H       -3.70763577       2.82301913       1.80289409
H       -3.60817494       0.05531048       0.41972042
H       -6.14633367       0.70565492       0.77672420
H       -7.34548334       1.97086459      -0.50634709
H       -5.34424734       2.02905152      -3.68522648
H       -6.24066382       3.00830986      -5.75145951
H       -9.94710181       3.87966425      -3.79419772
H       -9.08480013       2.90697742      -1.69071594
C       -4.41870292       0.28249135       2.28158644
C       -4.70357891      -0.19387535       3.35226680
Br      -5.16419928      -0.96412002       5.08346639
C        1.82233616      -1.82233616       1.82233616
C        2.72133084      -2.72984503       0.99707519
C        3.77412350      -2.02580824       0.13307028
N        4.58431020      -2.96746197      -0.60898385
C        4.05283461      -3.64574717      -1.68418893
O        2.90092209      -3.47526694      -2.05639693
N        4.96427467      -4.54654579      -2.18842054
C        4.75852323      -5.48609631      -3.21800405
C        3.61792809      -5.51842091      -4.02643341
C        3.47065252      -6.50881125      -5.00275361
C        4.46559830      -7.46190293      -5.17182408
F        4.31758935      -8.41713517      -6.09831705
C        5.61270618      -7.43774874      -4.39033373
C        5.76161331      -6.44671009      -3.41680372
H        1.12974468      -2.42190670       2.42132127
H        2.37146690      -1.16101932       2.49566432
H        2.08644648      -3.35675575       0.36034934
H        3.22457005      -3.42562155       1.68335739
H        3.34725821      -1.29619899      -0.56025135
H        5.56349488      -2.73461206      -0.66939415
H        5.81093323      -4.64855522      -1.64948762
H        2.82208484      -4.78729015      -3.92130261
H        2.58153202      -6.54039522      -5.62441308
H        6.37902990      -8.19176613      -4.53822769
H        6.66215770      -6.44749017      -2.80858626
C        4.70768342      -1.31083532       0.96426196
C        5.48953985      -0.71204551       1.66038500
Br       6.75373557       0.25614698       2.78595707
C       -0.00445707       0.01189536      -1.78238275
H       -0.66409135       0.67374010      -2.43557963
H        0.65740317      -0.63156657      -2.45157240
C       -0.90989263      -0.90692880      -0.91072765
C        0.90977584       0.90977584      -0.90977584
C       -0.00465871       1.77757030       0.00794375
H       -0.66225468       2.44313916      -0.64384735
H        0.64322798       2.43503045       0.67728295
C       -1.78241447       0.00034974      -0.00472694
H       -2.45427497      -0.65498947       0.64260836
H       -2.43311707       0.67328779      -0.65473579
C       -0.91132561       0.90220522       0.91563759
C       -0.01476271      -0.02253852       1.78660255
H       -0.67934791      -0.69751639       2.42135241
H        0.63392994       0.61504881       2.47327442
C        0.01484550      -1.77751727      -0.01636693
H        0.67870853      -2.42144646      -0.68295456
H       -0.62264859      -2.45592969       0.64226336
C        1.78714474       0.01002794       0.00389507
H        2.44202412       0.67113390       0.66197326
H        2.45385902      -0.65136977      -0.64189061
C        0.91606151      -0.90478549       0.90901405
