61
Properties=species:S:1:pos:R:3 pbc="F F F"
C        0.00000000       0.00000000       0.00000000
C        0.89032598       0.89032598      -0.89032598
H        1.68289046       1.42001718      -0.37662056
O        1.18174956       0.37365997      -2.19436631
C        0.29151199       1.49669978      -2.13338321
H       -0.75295192       1.30799731      -2.35157072
C        0.85564448       2.69648232      -2.66979257
C        1.32017264       3.71167049      -3.10955372
C        1.90837070       5.01621100      -3.65625082
C        2.36599320       6.04552702      -4.07130432
C        2.91135794       7.27783259      -4.54991522
H        3.69013924       7.73223305      -3.94900329
O        3.08893429       7.30366023      -5.97302488
C        2.07567939       8.16370515      -5.43781273
H        1.04414274       7.89361878      -5.62668137
Br       2.46181763      10.02851180      -5.48761956
C       -0.89032598      -0.89032598      -0.89032598
H       -1.95436552      -0.70010361      -0.82505906
O       -0.35725607      -1.21192003      -2.18059974
C       -0.41515600      -2.28071438      -1.22572461
H        0.52660026      -2.62128583      -0.81193055
C       -1.37417643      -3.28766256      -1.56008038
C       -2.18104143      -4.13534391      -1.82501152
C       -3.21764112      -5.21634543      -2.14684599
C       -4.03623822      -6.06152743      -2.38505890
C       -5.02049446      -7.06311071      -2.65550059
H       -6.05765102      -6.77007241      -2.54365215
O       -4.69502440      -7.88680256      -3.78379244
C       -4.66084320      -8.51823070      -2.49812336
H       -3.68872093      -8.77789605      -2.09782591
Br      -6.05527456      -9.76949495      -2.15317948
C       -0.89032598       0.89032598       0.89032598
H       -0.43663047       1.81312735       1.22977037
O       -2.27920011       0.92938534       0.54119039
C       -1.94043521       0.23274496       1.74841481
H       -2.02251278      -0.84758029       1.73168362
C       -2.39487851       0.89558801       2.93145284
C       -2.76364781       1.44572602       3.93202302
C       -3.21817699       2.14649712       5.21615841
C       -3.55986099       2.69518762       6.22777593
C       -3.95062109       3.35200421       7.43648046
H       -3.41915852       4.26135035       7.69086671
O       -5.36874760       3.34518852       7.65168327
C       -4.58088429       2.55017782       8.54613516
H       -4.64672293       1.47415223       8.44356772
Br      -4.44540611       3.20122799      10.33131489
C        0.89032598      -0.89032598       0.89032598
H        1.08450552      -0.50969119       1.88533148
O        0.69425168      -2.30277755       0.75274661
C        1.91987888      -1.77126210       0.23045400
H        2.01950856      -1.73502265      -0.84791510
C        3.07419893      -2.17642378       0.97129665
C        4.04980138      -2.50253070       1.58906477
C        5.30034987      -2.90193233       2.37855033
C        6.28403587      -3.19999825       2.99879042
C        7.45731748      -3.53897112       3.74281716
H        7.56014201      -3.08838047       4.72285309
O        7.82711796      -4.91933339       3.61916804
C        8.70368630      -3.96385669       3.00965427
H        8.71621221      -3.92054357       1.92768711
Br      10.38964409      -3.72460576       3.86369914
