90
Properties=species:S:1:pos:R:3 pbc="F F F"
C        0.36109328       3.27678131      -5.00563894
C        1.22266973       3.20708592      -3.77505373
O        1.98752556       4.11338022      -3.45969974
N        1.09765326       2.04909872      -3.05209259
C        1.83156707       1.83156707      -1.83156707
C        3.16610295       1.11802932      -2.04172488
C        4.16781041       1.97014499      -2.80352997
Br       5.87946851       1.03688685      -2.89415528
H       -0.24364291       2.37433653      -5.13039154
H        1.00372361       3.38797281      -5.88290965
H       -0.30806695       4.13739010      -4.92496657
H        0.42135289       1.34689972      -3.32011188
H        1.95923372       2.77205229      -1.28599697
H        3.01017818       0.17044993      -2.57544628
H        3.59181109       0.85194616      -1.06466410
H        4.36161245       2.92537164      -2.30904318
H        3.86983885       2.13832351      -3.84109765
C       -0.20767146      -4.60474281      -3.83109926
C       -1.27058656      -3.90026193      -3.03396088
O       -2.35472738      -4.41920987      -2.78666826
N       -0.93776295      -2.63429409      -2.62678752
C       -1.83156707      -1.83156707      -1.83156707
C       -2.73877480      -0.92510273      -2.66197961
C       -3.74875665      -1.70852907      -3.48419964
Br      -4.95084934      -0.46764362      -4.39201768
H        0.68265205      -3.98324658      -3.96049063
H       -0.60767791      -4.84802953      -4.81889864
H        0.07940096      -5.52247815      -3.31121253
H       -0.01616828      -2.26135150      -2.81084471
H       -2.40899360      -2.46123395      -1.14705543
H       -2.13630707      -0.29199305      -3.32777426
H       -3.27615994      -0.23985753      -1.99240388
H       -4.37830106      -2.35265105      -2.86507517
H       -3.27785175      -2.29421637      -4.27719189
C       -5.24185457       2.85439442       0.54726454
C       -4.18846389       2.46785019       1.54849530
O       -4.42643142       2.38472751       2.74944659
N       -2.94703314       2.23695984       1.01485158
C       -1.83156707       1.83156707       1.83156707
C       -0.98836555       3.00158449       2.33590710
C       -1.73871969       3.87417608       3.32858959
Br      -0.53916074       5.24794952       4.02340038
H       -4.84287423       2.88845807      -0.47024713
H       -5.62731261       3.84501640       0.80227706
H       -6.05229093       2.12157500       0.58042378
H       -2.80388449       2.26998717       0.01449284
H       -2.16868669       1.19367847       2.65491782
H       -0.64829386       3.61647050       1.49131003
H       -0.08009981       2.61248609       2.81583545
H       -2.09502649       3.30806368       4.19293709
H       -2.56792996       4.41492706       2.86640299
C        5.49270746      -2.20408443       0.94672164
C        4.27340847      -2.10953278       1.82186812
O        4.33955255      -2.17563364       3.04541933
N        3.09073824      -1.96398736       1.14411897
C        1.83156707      -1.83156707       1.83156707
C        1.11349089      -3.16232833       2.05003792
C        1.85074790      -4.06850756       3.02222991
Br       0.78896102      -5.67326799       3.34828163
H        5.23775998      -2.13787331      -0.11454813
H        5.98482084      -3.16352840       1.12625684
H        6.17426071      -1.38600326       1.19402575
H        3.08426303      -1.86632216       0.13777930
H        1.96125632      -1.28489275       2.77113391
H        0.98023173      -3.68367566       1.09216699
H        0.10331619      -2.96917373       2.43593143
H        2.00461931      -3.59582050       3.99558746
H        2.80363585      -4.42318074       2.62244342
C       -0.00445707       0.01189536      -1.78238275
H       -0.66409135       0.67374010      -2.43557963
H        0.65740317      -0.63156657      -2.45157240
C       -0.90989263      -0.90692880      -0.91072765
C        0.90977584       0.90977584      -0.90977584
C       -0.00465871       1.77757030       0.00794375
H       -0.66225468       2.44313916      -0.64384735
H        0.64322798       2.43503045       0.67728295
C       -1.78241447       0.00034974      -0.00472694
H       -2.45427497      -0.65498947       0.64260836
H       -2.43311707       0.67328779      -0.65473579
C       -0.91132561       0.90220522       0.91563759
C       -0.01476271      -0.02253852       1.78660255
H       -0.67934791      -0.69751639       2.42135241
H        0.63392994       0.61504881       2.47327442
C        0.01484550      -1.77751727      -0.01636693
H        0.67870853      -2.42144646      -0.68295456
H       -0.62264859      -2.45592969       0.64226336
C        1.78714474       0.01002794       0.00389507
H        2.44202412       0.67113390       0.66197326
H        2.45385902      -0.65136977      -0.64189061
C        0.91606151      -0.90478549       0.90901405
