141
Properties=species:S:1:pos:R:3 pbc="F F F"
C        0.00000000       0.00000000       0.00000000
C        0.91578879       0.91578879      -0.91578879
C        2.15564581       1.33747032      -0.14266971
C        3.09860378       2.24004879      -0.96542092
H        2.49883125       3.07364380      -1.34861562
C        3.73766090       1.48451136      -2.18490882
H        2.90666210       1.09657939      -2.78193819
N        4.47440329       0.25001655      -1.83360812
C        5.56143667       0.15552208      -0.99706843
O        6.01693388       1.08568556      -0.33982862
C        6.16757158      -1.22155434      -0.91737374
C        4.58124427       2.36290516      -3.13355478
C        3.83921762       3.51795734      -3.79384760
N        4.10794413       2.80080749      -0.06961169
C        4.56855716       4.09118564      -0.15550789
O        4.05886042       4.95238249      -0.86490051
C        5.77000969       4.37580699       0.70844409
H        0.30514979       1.77342920      -1.21098240
H        1.14465056       0.30934483      -1.79439676
H        2.69720613       0.45583926       0.22281366
H        1.84164942       1.88328109       0.75781692
H        4.27973341      -0.55468314      -2.41784769
H        5.54550012      -1.97140154      -1.41238540
H        6.27094519      -1.50369392       0.13459770
H        7.15222596      -1.20442858      -1.39181627
H        5.44713459       2.76377536      -2.59393783
H        4.99700479       1.72216424      -3.92282879
H        4.51313975       4.09586456      -4.43154959
H        3.35918989       4.19830179      -3.08905002
H        4.78499367       2.12802675       0.29245424
H        5.50098969       5.11936364       1.46262436
H        6.57790300       4.75922002       0.07946831
H        6.13053764       3.47898262       1.21947147
C        2.79757330       3.04754898      -4.66980027
C        1.92519618       2.65358198      -5.40341063
Br       0.51463615       2.01657067      -6.58959654
C       -0.91578879      -0.91578879      -0.91578879
C       -1.40076422      -0.11846398      -2.11655763
C       -2.30711391      -0.94004132      -3.05691826
H       -3.10877259      -1.36817376      -2.44414433
C       -1.53494882      -2.11427753      -3.75785473
H       -1.10225213      -2.72407870      -2.95884884
N       -0.33618706      -1.70091373      -4.52092718
C       -0.30257319      -0.82843980      -5.58301418
O       -1.26680186      -0.18751277      -5.98813343
C        1.05124234      -0.68589812      -6.22873519
C       -2.41004699      -3.06393403      -4.60372319
C       -3.51968529      -3.78360160      -3.84773567
N       -2.92745192      -0.03175849      -4.01915290
C       -4.22863484      -0.14460807      -4.44200777
O       -5.05062868      -0.89670216      -3.92881258
C       -4.57827558       0.74665777      -5.60575477
H       -1.74385226      -1.25711526      -0.28859388
H       -0.29000909      -1.76699216      -1.19139090
H       -0.54870282       0.29170671      -2.67323561
H       -1.96392299       0.75389615      -1.75708675
H        0.49208162      -2.26483656      -4.37014301
H        1.83563486      -1.17570485      -5.64641398
H        1.29713813       0.37727285      -6.30706456
H        1.01731746      -1.12985494      -7.22707617
H       -2.85500475      -2.51081962      -5.43902341
H       -1.75876431      -3.81899266      -5.06424086
H       -4.09881229      -4.41826393      -4.52347768
H       -4.20585136      -3.11619873      -3.32449160
H       -2.28826712       0.37251328      -4.70481235
H       -5.33588306       1.46791860      -5.28976452
H       -4.96766440       0.13110159      -6.42109189
H       -3.70975432       1.29709535      -5.97738982
C       -2.98918922      -4.67594455      -2.84978878
C       -2.54489875      -5.42328176      -2.01400827
Br      -1.82651865      -6.63166284      -0.66262187
C       -0.91578879       0.91578879       0.91578879
C       -1.90759942       0.05053907       1.67764734
C       -2.84344875       0.87064995       2.58997479
H       -3.30414861       1.64773064       1.96921142
C       -2.07254538       1.56644325       3.76809245
H       -1.29271160       2.18247659       3.30999149
N       -1.28596350       0.64934179       4.62272268
C       -1.77280822      -0.41012299       5.35134194
O       -2.93340718      -0.80547037       5.31451125
C       -0.74576342      -1.09642149       6.21404905
C       -2.92190398       2.51723427       4.63856597
C       -3.55848488       3.68957643       3.90296125
N       -3.91402222      -0.00241577       3.06675686
C       -5.22076976       0.39775597       3.19672496
O       -5.65667717       1.45836964       2.76109661
C       -6.09743875      -0.58682875       3.92676259
H       -1.41632423       1.62370040       0.24953677
H       -0.22580326       1.45311388       1.56947501
H       -1.37925033      -0.71233542       2.26331681
H       -2.51914647      -0.50617757       0.95414468
H       -0.34534797       0.95651847       4.84103151
H        0.26729431      -0.74663192       6.00041020
H       -0.78316407      -2.17289694       6.02238644
H       -0.97687242      -0.90186457       7.26460581
H       -3.71114062       1.94914622       5.14456094
H       -2.28581333       2.91582444       5.44036006
H       -4.15408077       4.29818610       4.58828703
H       -4.18808285       3.39692161       3.06153724
H       -3.62031819      -0.72504386       3.72529185
H       -6.86783359      -0.95494432       3.24483970
H       -6.56367661      -0.08475235       4.77873044
H       -5.53000587      -1.44252400       4.30256692
C       -2.56398820       4.58304092       3.36789343
C       -1.73109724       5.33131742       2.91977413
Br      -0.38438299       6.54121725       2.19520313
C        0.91578879      -0.91578879       0.91578879
C        0.20663579      -2.23117786       1.19797218
C        1.03264318      -3.17925026       2.09218005
H        1.31587734      -2.61623809       2.98897524
C        2.34207568      -3.68038144       1.38462397
H        2.90285759      -2.78601500       1.09630708
N        2.12699056      -4.34903420       0.08200321
C        1.37814557      -5.47977374      -0.14389214
O        0.69464642      -6.04305264       0.70474900
C        1.43354876      -5.99022876      -1.56038654
C        3.28790773      -4.51946040       2.27033609
C        3.81541937      -3.81934918       3.51625401
N        0.17571810      -4.28328224       2.51936297
C        0.20823820      -4.82791163       3.77910086
O        0.82069981      -4.33482870       4.72061489
C       -0.58494008      -6.10135384       3.92095882
H        1.10906808      -0.34952460       1.83096872
H        1.84683261      -1.04195684       0.35960270
H       -0.05992474      -2.73165565       0.25850081
H       -0.74821641      -2.01741555       1.69791445
H        2.74807613      -4.05913157      -0.66430974
H        1.93173939      -5.28479686      -2.23005228
H        0.41270148      -6.14294301      -1.92299092
H        1.97473568      -6.93987942      -1.57500145
H        2.78589043      -5.44565745       2.57329990
H        4.14563595      -4.83513337       1.66122850
H        4.45967632      -4.48883960       4.09203798
H        3.03455502      -3.43692026       4.17506642
H       -0.09167331      -4.93325453       1.77898496
H       -1.40412343      -5.93671424       4.62513817
H        0.07310447      -6.89090364       4.29364660
H       -1.00823769      -6.43025343       2.96803305
C        4.64427517      -2.69092285       3.17972453
C        5.33844189      -1.74586580       2.89788109
Br       6.46085079      -0.21778848       2.44216409
