170
Properties=species:S:1:pos:R:3 pbc="F F F"
C        1.82558114       1.82558114      -1.82558114
C        3.21465038       1.95288279      -1.21174298
C        4.16214496       2.85849129      -2.01999777
H        5.11723302       2.92570034      -1.48498537
N        4.42825164       2.33119072      -3.34605024
C        5.35424506       1.34179718      -3.56621499
O        5.99284644       0.79984281      -2.67236176
C        5.54892765       1.00355232      -5.02038212
C        3.58857293       4.20415186      -2.17619334
C        2.99527625       5.22198508      -2.38743685
C        2.08383924       6.38550413      -2.76574559
C        1.26978676       7.17378734      -3.15458203
C        0.21674963       8.04300099      -3.70955849
H        0.49952486       9.08880488      -3.55340493
N       -1.02049608       7.74722158      -3.00868630
C       -1.61133234       8.65531693      -2.16180995
O       -1.18685787       9.78699753      -1.96405202
C       -2.84511965       8.12802068      -1.48119746
C        0.06946151       7.74887364      -5.21346474
C       -0.99916906       8.57247823      -5.91307581
Br      -0.45758254      10.42905946      -6.09850877
H        1.30153007       2.78294099      -1.88964255
H        1.84568495       1.35555093      -2.81205242
H        3.65900203       0.95477310      -1.10956415
H        3.12333162       2.35554098      -0.19366078
H        3.97171888       2.76417500      -4.13803398
H        6.40829784       1.55909310      -5.40513997
H        4.66364925       1.25862209      -5.61026913
H        5.72789121      -0.07008853      -5.12199273
H       -1.32726007       6.78414729      -2.97374909
H       -2.55859186       7.57743626      -0.58184841
H       -3.40613462       7.47094147      -2.15223539
H       -3.49243921       8.96581851      -1.20675988
H        1.03721383       7.89145758      -5.71333627
H       -0.18684010       6.68793261      -5.34685136
H       -1.96092715       8.55768203      -5.39448677
H       -1.14843624       8.20952982      -6.93449786
C       -1.82558114      -1.82558114      -1.82558114
C       -2.95156378      -2.43139173      -0.99632064
C       -3.87143658      -3.36769892      -1.80149852
H       -4.62044476      -3.78805660      -1.11941737
N       -4.57429614      -2.66899945      -2.86219701
C       -5.70705828      -1.93060072      -2.62459823
O       -6.18818006      -1.76681050      -1.51006045
C       -6.33725953      -1.36573768      -3.86986489
C       -3.09652803      -4.45727470      -2.41511540
C       -2.38404593      -5.22105246      -2.99959980
C       -1.38495038      -6.00573924      -3.84439934
C       -0.55692667      -6.45934518      -4.58188427
C        0.47004213      -6.89347095      -5.54588029
H        0.45659896      -7.98591961      -5.61241402
N        1.75973632      -6.43574578      -5.05940234
C        2.72227043      -7.31203138      -4.61603360
O        2.60335229      -8.53080850      -4.63673548
C        3.95629693      -6.63252776      -4.08786768
C        0.15872954      -6.27134043      -6.91918899
C        1.15357972      -6.62891147      -8.01105323
Br       0.97222916      -8.48436991      -8.55784494
H       -1.15256762      -2.58022071      -2.24132527
H       -2.19638761      -1.18622251      -2.63067818
H       -3.54774267      -1.62535379      -0.55024282
H       -2.51904224      -2.99509871      -0.15839244
H       -4.26078715      -2.79793623      -3.81520447
H       -7.13527358      -2.03493775      -4.20231958
H       -5.60277403      -1.25656069      -4.67320576
H       -6.75120323      -0.37799888      -3.65059330
H        1.86228369      -5.45407644      -4.83884357
H        3.80720076      -6.37030086      -3.03759272
H        4.17787221      -5.72995004      -4.66496441
H        4.80921408      -7.31122434      -4.17812891
H       -0.85557274      -6.55541004      -7.23102490
H        0.15001038      -5.17611167      -6.82184258
H        2.19310407      -6.47084063      -7.71350508
H        0.95538917      -6.03954685      -8.91143376
C       -1.82558114       1.82558114       1.82558114
C       -0.95751761       2.68370863       2.73804991
C       -1.76871939       3.58084535       3.69106928
H       -1.06744410       4.12601308       4.33446157
N       -2.57190109       4.55664993       2.97694158
C       -2.04075001       5.72707631       2.49443091
O       -0.85557930       6.02257706       2.58689465
C       -3.05801333       6.64480597       1.87004279
C       -2.67421432       2.77248279       4.52222101
C       -3.48443028       2.06844015       5.05182776
C       -4.59445934       1.12847082       5.51215881
C       -5.51596501       0.38548107       5.69671004
C       -6.68414257      -0.50808452       5.79325105
H       -6.93999485      -0.64668055       6.84842036
N       -6.32291363      -1.78024192       5.19274009
C       -6.19052231      -2.92608836       5.94136060
O       -6.40834334      -2.98907941       7.14492775
C       -5.74120147      -4.11828250       5.14117953
C       -7.86354963       0.13063129       5.03761898
C       -9.13777927      -0.69762955       5.04623526
Br      -9.97060784      -0.70212707       6.80150491
H       -2.46412434       1.13146880       2.37852047
H       -2.44027898       2.42429411       1.14871521
H       -0.29187341       3.30540204       2.12606383
H       -0.30673937       2.03047210       3.33532191
H       -3.56869557       4.40086143       2.90437085
H       -3.38035238       7.37978309       2.61239544
H       -3.93009376       6.08864971       1.51379700
H       -2.60814855       7.15650044       1.01514642
H       -5.95013969      -1.77213142       4.25262805
H       -4.65081622      -4.11969204       5.06956863
H       -6.17618605      -4.09677532       4.13763150
H       -6.07659953      -5.03358915       5.63712880
H       -8.06538367       1.12998845       5.44663555
H       -7.57391530       0.28575549       3.98827308
H       -8.97589374      -1.73784716       4.75319506
H       -9.87983295      -0.25747312       4.37323162
C        1.82558114      -1.82558114       1.82558114
C        0.95724983      -2.72740451       2.69462181
C        1.76713426      -3.62805336       3.64544640
H        1.06421915      -4.20625573       4.25744386
N        2.61186310      -4.56560794       2.92802156
C        2.12229508      -5.73620749       2.40375467
O        0.94301659      -6.06291326       2.45912116
C        3.17731294      -6.61272920       1.78281995
C        2.63136771      -2.81887907       4.51867134
C        3.41039796      -2.10871627       5.08558396
C        4.48482422      -1.15367876       5.59658599
C        5.38255793      -0.39318949       5.82240870
C        6.52518425       0.52604412       5.97016897
H        6.75151961       0.64430287       7.03451793
N        6.14692325       1.80365492       5.39214348
C        5.96745051       2.92672853       6.16507257
O        6.15403968       2.96476577       7.37491777
C        5.50805846       4.12728469       5.38332472
C        7.73845010      -0.06436040       5.22898939
C        8.99086088       0.79441969       5.28994379
Br       9.78001979       0.77521154       7.06517743
H        2.43272200      -1.13013885       2.41125276
H        2.47154897      -2.39183545       1.14990388
H        0.32265210      -3.34965274       2.05103443
H        0.27580501      -2.10554414       3.29118424
H        3.60590595      -4.38364771       2.88437419
H        3.49972566      -7.35801047       2.51479478
H        4.04361016      -6.02657513       1.46235518
H        2.76155294      -7.11364848       0.90459399
H        5.79763664       1.81004164       4.44304132
H        4.42006642       4.10375507       5.28438146
H        5.96792448       4.14168562       4.39080337
H        5.80807810       5.03778377       5.90984485
H        7.95525247      -1.06843396       5.61832124
H        7.47862623      -0.20011194       4.16920570
H        8.81011121       1.83739260       5.01852303
H        9.76002534       0.38965006       4.62521616
C       -0.00445707       0.01189536      -1.78238275
H       -0.66409135       0.67374010      -2.43557963
H        0.65740317      -0.63156657      -2.45157240
C       -0.90989263      -0.90692880      -0.91072765
C        0.90977584       0.90977584      -0.90977584
C       -0.00465871       1.77757030       0.00794375
H       -0.66225468       2.44313916      -0.64384735
H        0.64322798       2.43503045       0.67728295
C       -1.78241447       0.00034974      -0.00472694
H       -2.45427497      -0.65498947       0.64260836
H       -2.43311707       0.67328779      -0.65473579
C       -0.91132561       0.90220522       0.91563759
C       -0.01476271      -0.02253852       1.78660255
H       -0.67934791      -0.69751639       2.42135241
H        0.63392994       0.61504881       2.47327442
C        0.01484550      -1.77751727      -0.01636693
H        0.67870853      -2.42144646      -0.68295456
H       -0.62264859      -2.45592969       0.64226336
C        1.78714474       0.01002794       0.00389507
H        2.44202412       0.67113390       0.66197326
H        2.45385902      -0.65136977      -0.64189061
C        0.91606151      -0.90478549       0.90901405
