126
Properties=species:S:1:pos:R:3 pbc="F F F"
C        1.82740680       1.82740680      -1.82740680
C        1.32752242       1.76597968      -3.26097285
C        2.20338500       2.57408696      -4.21563554
N        2.10720033       3.99735369      -4.00786197
C        3.00447592       4.67482730      -3.21366608
O        3.91075337       4.09190436      -2.62522890
C        2.83511593       6.15455735      -3.06647217
C        3.73138897       6.83124106      -2.22410409
C        3.62434303       8.21010557      -2.02863965
C        2.62030787       8.92779907      -2.67317192
C        1.72682297       8.26925694      -3.51520210
C        1.83180368       6.88858310      -3.71448880
H        2.84655896       1.44517550      -1.72757073
H        1.76021054       2.83100774      -1.40129583
H        0.28968739       2.12385301      -3.30488866
H        1.30333548       0.71740311      -3.58706165
H        3.24626852       2.24235625      -4.19312938
H        1.36154969       4.46687379      -4.49420485
H        4.52156561       6.28464407      -1.71161659
H        4.32482933       8.72091275      -1.37251116
H        2.53463456      10.00092243      -2.52025482
H        0.94462697       8.83217407      -4.01937449
H        1.11467062       6.42599695      -4.38186992
C        1.73930841       2.34319280      -5.55910896
C        1.35064427       2.14981895      -6.68426794
Br       0.72220723       1.83714978      -8.50355486
C       -1.82740680      -1.82740680      -1.82740680
C       -1.89962818      -3.22329658      -1.23155019
C       -2.71357816      -4.18203655      -2.09749278
N       -4.12199271      -3.87517695      -2.11524633
C       -4.68178758      -3.10320600      -3.10797572
O       -4.00085898      -2.61929495      -4.00773270
C       -6.15545225      -2.84780999      -3.05288320
C       -6.71114624      -2.02787089      -4.04771699
C       -8.07693950      -1.73541199      -4.05073677
C       -8.90236030      -2.25946465      -3.05945391
C       -8.36451759      -3.07807386      -2.06869057
C       -6.99732696      -3.37431104      -2.06323758
H       -1.37312960      -1.82460406      -2.82157153
H       -2.80087346      -1.33276252      -1.85887813
H       -2.32696060      -3.17072316      -0.22074530
H       -0.88036522      -3.61491654      -1.11251848
H       -2.31343899      -4.25456127      -3.11375389
H       -4.67234908      -4.27617073      -1.37410852
H       -6.07931582      -1.60903028      -4.82948017
H       -8.49342640      -1.09798640      -4.82684043
H       -9.96540994      -2.03089790      -3.05950396
H       -9.01148610      -3.48812801      -1.29656142
H       -6.63071907      -4.01860817      -1.27321024
C       -2.60844641      -5.50187150      -1.53129226
C       -2.52039856      -6.60723327      -1.05709933
Br      -2.37803265      -8.39450976      -0.29036946
C       -1.82740680       1.82740680       1.82740680
C       -3.27467881       1.69618382       1.38361231
C       -4.20993502       2.60311615       2.18005633
N       -4.36155915       2.19619653       3.55466031
C       -3.59356114       2.74026082       4.55914734
O       -2.72632898       3.57706528       4.32449237
C       -3.82986824       2.26706155       5.95921565
C       -3.01590741       2.79908496       6.97174174
C       -3.17095907       2.39299161       8.29913758
C       -4.14146001       1.45073176       8.62908709
C       -4.95880601       0.91789065       7.63458535
C       -4.80736671       1.32324360       6.30426526
H       -1.45204820       2.84823835       1.71901863
H       -1.66740599       1.47587615       2.84923198
H       -3.59449892       0.64905021       1.47487993
H       -3.34587380       1.94562105       0.31630538
H       -3.91569391       3.65516052       2.11089972
H       -5.07483134       1.51010845       3.73768853
H       -2.25137249       3.53600691       6.73044687
H       -2.53271980       2.81270021       9.07283322
H       -4.26181681       1.13224314       9.66175186
H       -5.71771649       0.18358702       7.89487202
H       -5.47070629       0.88123852       5.57059268
C       -5.52501547       2.51680949       1.59978521
C       -6.62639534       2.44452767       1.11380815
Br      -8.40723345       2.32765408       0.32802434
C        1.82740680      -1.82740680       1.82740680
C        3.21481611      -1.21544792       1.92421092
C        4.17417847      -2.07961018       2.73931884
N        3.85034440      -2.11857221       4.14349939
C        3.08394097      -3.12753866       4.68148967
O        2.61958977      -4.02464402       3.98365284
C        2.80986113      -3.09384434       6.15243998
C        1.99557310      -4.10545126       6.68570976
C        1.68647669      -4.12897724       8.04763431
C        2.18806032      -3.14165923       8.89155931
C        3.00085057      -2.13435966       8.37607178
C        3.31371164      -2.10833726       7.01282668
H        1.84248638      -2.81582504       1.36099377
H        1.32131095      -1.87699288       2.79421028
H        3.14449239      -0.21073600       2.36320067
H        3.61737874      -1.07900835       0.91141315
H        4.26418520      -3.08987028       2.32769867
H        4.23535511      -1.37945877       4.70781445
H        1.59421911      -4.88439265       6.03921451
H        1.05366782      -4.91792778       8.44665764
H        1.94651559      -3.15768185       9.95161437
H        3.39335351      -1.36534602       9.03747600
H        3.95260786      -1.30599921       6.66393041
C        5.48808309      -1.49603595       2.65749113
C        6.58847820      -1.00729253       2.58896043
Br       8.36772404      -0.21703576       2.47815207
C       -0.00445707       0.01189536      -1.78238275
H       -0.66409135       0.67374010      -2.43557963
H        0.65740317      -0.63156657      -2.45157240
C       -0.90989263      -0.90692880      -0.91072765
C        0.90977584       0.90977584      -0.90977584
C       -0.00465871       1.77757030       0.00794375
H       -0.66225468       2.44313916      -0.64384735
H        0.64322798       2.43503045       0.67728295
C       -1.78241447       0.00034974      -0.00472694
H       -2.45427497      -0.65498947       0.64260836
H       -2.43311707       0.67328779      -0.65473579
C       -0.91132561       0.90220522       0.91563759
C       -0.01476271      -0.02253852       1.78660255
H       -0.67934791      -0.69751639       2.42135241
H        0.63392994       0.61504881       2.47327442
C        0.01484550      -1.77751727      -0.01636693
H        0.67870853      -2.42144646      -0.68295456
H       -0.62264859      -2.45592969       0.64226336
C        1.78714474       0.01002794       0.00389507
H        2.44202412       0.67113390       0.66197326
H        2.45385902      -0.65136977      -0.64189061
C        0.91606151      -0.90478549       0.90901405
