189
Properties=species:S:1:pos:R:3 pbc="F F F"
C        0.00000000       0.00000000       0.00000000
C        0.91372103       0.91372103      -0.91372103
C        0.17411771       1.28392888      -2.19185224
C        0.95994508       2.31939529      -3.02465396
H        1.15432022       3.17232588      -2.35930917
C        0.09767496       2.88462171      -4.20906579
H       -0.87088612       3.17678678      -3.77857636
N       -0.21544158       1.88863680      -5.22338140
C       -1.19448359       2.04830300      -6.17706736
O       -1.90677226       3.04040402      -6.25801216
C       -1.32462282       0.94404430      -7.16900965
C       -1.71044922       1.26237656      -8.47688349
C       -1.83803469       0.25437489      -9.43514934
C       -1.59447003      -1.07359914      -9.08690466
C       -1.22429030      -1.39802307      -7.78104716
C       -1.08958553      -0.39212802      -6.82124955
C        0.68310721       4.18091117      -4.81066559
C        1.93459598       3.99437826      -5.64904896
Br       2.50903815       5.72540155      -6.35085826
N        2.30483328       1.82462281      -3.37055487
C        2.56728125       0.73239335      -4.17443371
O        1.68465306       0.15562914      -4.80181184
C        3.97468710       0.22886816      -4.26023181
C        4.20884581      -0.88978642      -5.07799795
C        5.48063571      -1.45909178      -5.16681016
C        6.53571423      -0.91503268      -4.44106155
C        6.32257761       0.20520680      -3.63983944
C        5.04945662       0.78036975      -3.55023138
H        1.82312556       0.33939034      -1.10978241
H        1.16319061       1.79446200      -0.31480900
H       -0.80553886       1.70646355      -1.93396245
H       -0.02265192       0.37871744      -2.77833923
H        0.41696784       1.09028599      -5.29810065
H       -1.90478687       2.29699116      -8.75163665
H       -2.12969877       0.50603128     -10.45174989
H       -1.69886030      -1.85855976      -9.83216435
H       -1.04505029      -2.43482379      -7.50850705
H       -0.81906921      -0.66684761      -5.80524229
H       -0.08554335       4.66114942      -5.43021025
H        0.88190233       4.88986336      -3.99599669
H        1.77225546       3.34933065      -6.51554953
H        2.78603603       3.63623901      -5.07018678
H        3.06127041       2.22826330      -2.83944723
H        3.39452634      -1.33491367      -5.64779873
H        5.64218469      -2.33064342      -5.79671358
H        7.52431470      -1.36432000      -4.49965073
H        7.15145054       0.62903883      -3.07699998
H        4.94145015       1.64865556      -2.91182479
C       -0.91372103      -0.91372103      -0.91372103
C       -1.92101734      -1.67010302      -0.05877848
C       -2.94606157      -2.43145746      -0.92647529
H       -3.39986895      -1.68862764      -1.59745868
C       -4.12346508      -3.00667680      -0.06122057
H       -4.47665733      -2.18141725       0.57359756
N       -3.70605337      -4.05214242       0.86161917
C       -4.46743089      -4.48601457       1.92255869
O       -5.56689833      -4.02583936       2.20109376
C       -3.89702693      -5.60945141       2.71804720
C       -4.77579846      -6.53962582       3.28661345
C       -4.27738980      -7.60864601       4.03454627
C       -2.90315840      -7.74359099       4.22791391
C       -2.02389027      -6.81090802       3.67606450
C       -2.51796491      -5.74377685       2.92220577
C       -5.34564884      -3.41809704      -0.91093809
C       -5.16530853      -4.68412702      -1.72858765
Br      -6.81394244      -5.06510581      -2.70624971
N       -2.28145091      -3.37753852      -1.84102153
C       -1.54664300      -4.47926932      -1.44819598
O       -1.50586066      -4.85521204      -0.28102133
C       -0.75943254      -5.22053688      -2.48381765
C       -0.01392390      -6.33090179      -2.05223165
C        0.79457122      -7.04103596      -2.94188936
C        0.86566289      -6.65164235      -4.27576364
C        0.11806790      -5.56347704      -4.72221472
C       -0.69567586      -4.85058184      -3.83380005
H       -0.23730840      -1.58342089      -1.45156903
H       -1.40270129      -0.24327398      -1.62648635
H       -2.45801800      -0.95923086       0.58236170
H       -1.39166972      -2.35592159       0.61318656
H       -2.85845016      -4.56889933       0.62199501
H       -5.84896397      -6.43581185       3.14093487
H       -4.96201309      -8.33365729       4.46758799
H       -2.51600064      -8.57330528       4.81456164
H       -0.95362185      -6.91156054       3.83654941
H       -1.81870855      -5.01741311       2.51679619
H       -6.20943543      -3.55007916      -0.24630173
H       -5.61413717      -2.58261276      -1.57101245
H       -4.96343691      -5.56243441      -1.11126432
H       -4.40327675      -4.58716298      -2.50202208
H       -2.23845373      -3.08519916      -2.80532804
H       -0.05007144      -6.64669227      -1.01064770
H        1.37259744      -7.89182946      -2.58902284
H        1.50406509      -7.19617095      -4.96753957
H        0.17433383      -5.26500338      -5.76681981
H       -1.25340506      -4.01333895      -4.23518649
C       -0.91372103       0.91372103       0.91372103
C       -0.32500567       2.31433639       1.01055678
C       -1.27845872       3.28320919       1.74232641
H       -2.23821286       3.23916509       1.20857732
C       -0.79052312       4.77148916       1.62935018
H       -0.56966226       4.94794957       0.56686519
N        0.45946900       5.02529078       2.33075484
C        1.23850386       6.14133366       2.12805696
O        0.96158981       7.02526930       1.32796444
C        2.45162336       6.25416065       2.98589385
C        2.87756275       7.52947255       3.37690103
C        4.00751278       7.67406336       4.18493896
C        4.72191017       6.54818762       4.59255803
C        4.31041404       5.27586894       4.19327889
C        3.17726771       5.12656185       3.39024186
C       -1.89191198       5.79191963       1.99085235
C       -2.22463252       5.88448774       3.46890294
Br      -3.60534381       7.24079052       3.73916363
N       -1.60255152       2.80047372       3.09698572
C       -0.69373194       2.65356957       4.12680680
O        0.46072390       3.06029008       4.04252784
C       -1.13407790       1.95435140       5.37535777
C       -0.18447882       1.81119551       6.40138301
C       -0.49487185       1.11958844       7.57389381
C       -1.76031727       0.56460634       7.73681949
C       -2.71815653       0.71393045       6.73553688
C       -2.41152798       1.40887804       5.55965174
H       -0.96947965       0.41683056       1.88598810
H       -1.90483709       0.91684468       0.45077984
H       -0.13643157       2.69861221      -0.00015663
H        0.64860219       2.27022059       1.51278635
H        0.69299933       4.39707858       3.10127523
H        2.32483601       8.41065941       3.05801755
H        4.33059595       8.66515928       4.49351906
H        5.60451435       6.66172781       5.21753083
H        4.87445792       4.39996397       4.50312693
H        2.88387997       4.12912060       3.07408483
H       -1.58297114       6.78463623       1.63820895
H       -2.79777922       5.55122049       1.41876267
H       -1.37029666       6.18925722       4.07758175
H       -2.65902271       4.96708301       3.86635609
H       -2.52331047       2.40275524       3.20291522
H        0.81386979       2.23160961       6.28967158
H        0.25502640       1.00961947       8.35366178
H       -2.00007841       0.01532101       8.64424601
H       -3.70726533       0.28116335       6.86906068
H       -3.19369669       1.49307613       4.81515768
C        0.91372103      -0.91372103       0.91372103
C        1.45114873      -0.10944502       2.08930509
C        2.19712260      -1.00723434       3.09963738
H        1.49559896      -1.80279856       3.38755775
C        2.53638113      -0.23235787       4.42262346
H        1.60840388       0.26431010       4.74038325
N        3.50272417       0.83969392       4.23354637
C        3.72339044       1.84232785       5.14982418
O        3.11887197       1.93711993       6.20989189
C        4.79818088       2.81521979       4.80547005
C        5.55501315       3.37063717       5.84443485
C        6.57409740       4.28220320       5.55959534
C        6.83051441       4.65140575       4.23972682
C        6.06926424       4.11228238       3.20175192
C        5.05321306       3.19558483       3.48190776
C        2.91379338      -1.17316819       5.58772240
C        4.28028487      -1.82402089       5.47371745
Br       4.59751921      -2.94524947       7.04252928
N        3.31088974      -1.73001582       2.45910540
C        4.42979464      -1.13730204       1.90701163
O        4.66598702       0.05973915       2.03584616
C        5.36887870      -1.98677515       1.10813322
C        6.49282117      -1.35360384       0.55063233
C        7.38602315      -2.05976536      -0.25743442
C        7.16835006      -3.40944571      -0.51605266
C        6.06787304      -4.05517676       0.04457405
C        5.17153518      -3.35116239       0.85736018
H        1.71097534      -1.29266163       0.26866134
H        0.28488996      -1.74702138       1.24055027
H        0.61576765       0.38370948       2.60282898
H        2.10431827       0.69003236       1.72011884
H        4.13164454       0.75928519       3.43299514
H        5.35568355       3.08774381       6.87590121
H        7.16524127       4.70516491       6.36800604
H        7.62077231       5.36501572       4.01898770
H        6.26339816       4.40910941       2.17434423
H        4.45899496       2.80150167       2.66183217
H        2.87283532      -0.60609161       6.52688939
H        2.13923185      -1.94571595       5.68281457
H        5.09512821      -1.09706388       5.44494355
H        4.35795991      -2.50690866       4.62759324
H        3.14193892      -2.70790407       2.27913794
H        6.67643060      -0.29611888       0.73486192
H        8.24529813      -1.55191280      -0.68895609
H        7.85636252      -3.95819264      -1.15490972
H        5.90385958      -5.11140041      -0.15777063
H        4.33358584      -3.90304664       1.26529803
