45
Properties=species:S:1:pos:R:3 pbc="F F F"
C        0.00000000       0.00000000       0.00000000
C        0.86158282       0.86158282      -0.86158282
C        0.43860916       1.98919242      -1.44175776
C        1.38222415       2.76687103      -2.27943355
O        2.54194316       2.42042342      -2.46384882
C        0.81044739       3.99720074      -2.87653092
C        1.58310125       4.76246388      -3.65399395
Br       0.99977022       6.32559680      -4.46531335
H        1.87257262       0.48190069      -0.97346870
H       -0.57460585       2.34857100      -1.31628028
H       -0.22148901       4.25212737      -2.67235382
H        2.62000435       4.52647152      -3.87282776
C       -0.86158282      -0.86158282      -0.86158282
C       -0.39752190      -1.88159389      -1.59044355
C       -1.34567809      -2.67065645      -2.41219419
O       -2.54521653      -2.42880758      -2.45219128
C       -0.72645568      -3.77565602      -3.18206735
C       -1.50028417      -4.54054466      -3.95873024
Br      -0.86068835      -5.95417463      -4.97581740
H       -1.90948279      -0.57834800      -0.84011122
H        0.65209063      -2.14574918      -1.59658688
H        0.34006734      -3.94172614      -3.10133337
H       -2.57147050      -4.39237908      -4.05545405
C       -0.86158282       0.86158282       0.86158282
C       -1.99976051       0.44458625       1.42521257
C       -2.77748162       1.38822528       2.26282183
O       -2.42002926       2.54172023       2.46446590
C       -4.02258704       0.82480537       2.83678665
C       -4.79576329       1.60193471       3.60186106
Br      -6.37850538       1.02969424       4.38248076
H       -0.47291253       1.86748910       0.98754038
H       -2.36827753      -0.56346024       1.28542814
H       -4.28231888      -0.20441331       2.62508660
H       -4.55560372       2.63648092       3.82721899
C        0.86158282      -0.86158282       0.86158282
C        2.03924922      -0.47109709       1.35921303
C        2.81269665      -1.41196594       2.20386614
O        2.41691684      -2.53966731       2.46963123
C        4.10359479      -0.87949939       2.70108487
C        4.87625856      -1.65695641       3.46634411
Br       6.51346188      -1.12169865       4.15551985
H        0.43747633      -1.84374026       1.04672541
H        2.44273091       0.51349407       1.16100859
H        4.39626065       0.12794345       2.43467497
H        4.60349857      -2.66999654       3.74580851
