66
Properties=species:S:1:pos:R:3 pbc="F F F"
C        1.77148685       1.77148685      -1.77148685
C        1.34851318       2.89909645      -2.35166178
C        2.29212817       3.67677506      -3.18933757
O        3.45184718       3.33032744      -3.37375284
C        1.72035142       4.90710476      -3.78643494
C        2.49300527       5.67236790      -4.56389797
Br       1.90967425       7.23550083      -5.37521738
H        2.78247664       1.39180471      -1.88337272
H        0.33529817       3.25847503      -2.22618430
H        0.68841501       5.16203139      -3.58225784
H        3.52990837       5.43637554      -4.78273178
C       -1.77148685      -1.77148685      -1.77148685
C       -1.32419290      -2.84592310      -2.42915541
C       -2.27048348      -3.62922273      -3.25853459
O       -3.45378015      -3.33446900      -3.36767831
C       -1.67059641      -4.79760636      -3.94568836
C       -2.44386125      -5.56265224      -4.72275766
Br      -1.82717338      -7.05188324      -5.64133583
H       -2.80431924      -1.43946533      -1.81386950
H       -0.28943584      -3.15824485      -2.37227681
H       -0.61822954      -5.00863766      -3.80583704
H       -3.50100948      -5.37004414      -4.87796208
C       -1.77148685       1.77148685       1.77148685
C       -2.93746751       1.37240339       2.28940051
C       -3.71218052       2.31417196       3.13188832
O       -3.32774224       3.45023761       3.37794761
C       -4.98952930       1.77166975       3.65269208
C       -5.76235076       2.54902948       4.41789091
Br      -7.38344136       2.00178348       5.13516761
H       -1.35786721       2.76134682       1.93844004
H       -3.33060208       0.38020519       2.10915023
H       -5.27244613       0.75716031       3.40309781
H       -5.49924149       3.56904933       4.68072488
C        1.77148685      -1.77148685       1.77148685
C        2.97532440      -1.40300536       2.22094166
C        3.74593420      -2.34156715       3.07073945
O        3.32475617      -3.44786451       3.38330678
C        5.06717035      -1.83477561       3.51194516
C        5.83945892      -2.61245165       4.27736058
Br       7.51273421      -2.10785679       4.89980146
H        1.32389281      -2.73392927       1.99983199
H        3.40197989      -0.43788379       1.98009382
H        5.38168094      -0.84543328       3.20559003
H        5.54507288      -3.60761155       4.59633126
C       -0.00445707       0.01189536      -1.78238275
H       -0.66409135       0.67374010      -2.43557963
H        0.65740317      -0.63156657      -2.45157240
C       -0.90989263      -0.90692880      -0.91072765
C        0.90977584       0.90977584      -0.90977584
C       -0.00465871       1.77757030       0.00794375
H       -0.66225468       2.44313916      -0.64384735
H        0.64322798       2.43503045       0.67728295
C       -1.78241447       0.00034974      -0.00472694
H       -2.45427497      -0.65498947       0.64260836
H       -2.43311707       0.67328779      -0.65473579
C       -0.91132561       0.90220522       0.91563759
C       -0.01476271      -0.02253852       1.78660255
H       -0.67934791      -0.69751639       2.42135241
H        0.63392994       0.61504881       2.47327442
C        0.01484550      -1.77751727      -0.01636693
H        0.67870853      -2.42144646      -0.68295456
H       -0.62264859      -2.45592969       0.64226336
C        1.78714474       0.01002794       0.00389507
H        2.44202412       0.67113390       0.66197326
H        2.45385902      -0.65136977      -0.64189061
C        0.91606151      -0.90478549       0.90901405
