53
Properties=species:S:1:pos:R:3 pbc="F F F"
C        0.00000000       0.00000000       0.00000000
C        0.86158282       0.86158282      -0.86158282
C        0.43860916       1.98919242      -1.44175776
C        1.38222415       2.76687103      -2.27943355
O        2.54194316       2.42042342      -2.46384882
C        0.81044739       3.99720074      -2.87653092
C        1.58310125       4.76246388      -3.65399395
H        1.87257262       0.48190069      -0.97346870
H       -0.57460585       2.34857100      -1.31628028
H       -0.22148901       4.25212737      -2.67235382
H        2.62000435       4.52647152      -3.87282776
C        1.13033033       5.97573917      -4.28372529
C        0.75113470       6.99185723      -4.81112529
Br       0.13800742       8.63483419      -5.66388648
C       -0.86158282      -0.86158282      -0.86158282
C       -0.38404799      -1.79772104      -1.68779031
C       -1.33375079      -2.59567928      -2.49909866
O       -2.54631121      -2.43535113      -2.44455305
C       -0.69909129      -3.60303081      -3.38205695
C       -1.47369447      -4.36777625      -4.15808836
H       -1.92161085      -0.65353765      -0.75279350
H        0.67751111      -1.98764590      -1.78011063
H        0.37896780      -3.69976339      -3.38219659
H       -2.55634392      -4.28815568      -4.17480403
C       -0.96311945      -5.37462815      -5.05204720
C       -0.53551288      -6.21786662      -5.80073772
Br       0.15589079      -7.58131190      -7.01130698
C       -0.86158282       0.86158282       0.86158282
C       -1.95664622       0.42267421       1.49023891
C       -2.73902509       1.36859049       2.32091315
O       -2.42342437       2.54341245       2.45937857
C       -3.93411576       0.77956035       2.97050294
C       -4.70779518       1.55633490       3.73542900
H       -0.51159877       1.88711310       0.92923014
H       -2.28698989      -0.60475658       1.40801211
H       -4.15791788      -0.26761493       2.81268922
H       -4.50319724       2.60860903       3.90749736
C       -5.89011046       1.08840566       4.41127867
C       -6.88029952       0.69651492       4.97730278
Br      -8.48135147       0.06286074       5.89251589
C        0.86158282      -0.86158282       0.86158282
C        1.98884544      -0.43842003       1.44229387
C        2.76774647      -1.38270133       2.27808093
O        2.42088906      -2.54219697       2.46312937
C        4.00019141      -0.81207755       2.87191009
C        4.77350001      -1.58911681       3.63694225
H        0.48270687      -1.87301205       0.97222308
H        2.34769814       0.57508163       1.31762892
H        4.25082460       0.22219913       2.67436669
H        4.54234624      -2.62865733       3.84830006
C        5.99030672      -1.13827080       4.26121728
C        7.00938234      -0.76068727       4.78404761
Br       8.65714142      -0.15016663       5.62942005
