106
Properties=species:S:1:pos:R:3 pbc="F F F"
C        1.76501279       1.76501279      -1.76501279
H        2.64656467       1.29398882      -2.18243387
C        1.47335154       3.15193859      -1.95734527
H        0.59252362       3.58215661      -1.49925391
C        2.39897776       4.02755098      -2.70615971
O        3.39422890       3.58921943      -3.26902894
C        2.03976407       5.46846858      -2.69959556
C        2.90462270       6.36543291      -3.19312383
C        2.65100257       7.78859486      -3.17654903
C        3.54492813       8.68846408      -3.61362696
C        3.22412000      10.13716913      -3.54447967
O        2.16972029      10.56772353      -3.09471746
C        4.28100453      11.03267667      -4.05973557
H        5.20007504      10.60448580      -4.43691206
C        4.10354315      12.45179638      -4.07183869
H        3.20360041      12.93156339      -3.70664472
Br       5.41472035      13.56743819      -4.73702209
H        1.09286535       5.76295432      -2.26351017
H        3.85353065       6.02725319      -3.61020738
H        1.69464223       8.12732195      -2.77846836
H        4.50795695       8.39152315      -4.01121187
C       -1.76501279      -1.76501279      -1.76501279
H       -2.55027435      -2.31346694      -1.25924607
C       -1.50887773      -1.90900078      -3.16475689
H       -0.69661019      -1.35761160      -3.61971235
C       -2.28523344      -2.86094441      -3.98651060
O       -3.23277418      -3.48873855      -3.53096454
C       -1.81225703      -3.00918999      -5.38638119
C       -2.33043841      -3.97448100      -6.15826002
C       -1.88739503      -4.21567574      -7.51307568
C       -2.36292403      -5.22211295      -8.26198218
C       -1.84359164      -5.42311996      -9.63905720
O       -0.98168595      -4.71140948     -10.13906585
C       -2.44519180      -6.55793254     -10.37029243
H       -3.19571256      -7.16447365      -9.88128670
C       -2.05438025      -6.86036524     -11.71243272
H       -1.30861360      -6.28536654     -12.24782839
Br      -2.82328663      -8.26347758     -12.63241642
H       -1.03116274      -2.34747586      -5.74069125
H       -3.10542534      -4.62823847      -5.75732741
H       -1.12716517      -3.55069825      -7.92256911
H       -3.11478540      -5.90705717      -7.88884940
C       -1.76501279       1.76501279       1.76501279
H       -1.25102194       2.37021873       2.50174668
C       -3.19124957       1.72618414       1.66520170
H       -3.65898136       1.08662996       0.92832282
C       -4.04095917       2.48521395       2.60651533
O       -3.56615605       3.24589434       3.44042688
C       -5.49869375       2.23416041       2.47497404
C       -6.33844804       2.73106673       3.39366466
C       -7.76334872       2.48862940       3.36416833
C       -8.59352011       2.93428613       4.31921293
C      -10.04428943       2.62675457       4.23472480
O      -10.53649647       1.96888025       3.32678455
C      -10.86061625       3.17438003       5.33842050
H      -10.37750657       3.74023452       6.12373182
C      -12.27588710       2.97216437       5.37912674
H      -12.80881976       2.41416204       4.61882672
Br     -13.29715381       3.67635826       6.74566856
H       -5.84553458       1.62398884       1.64980643
H       -5.94564994       3.32869086       4.21665043
H       -8.16055929       1.90841162       2.53146163
H       -8.23628496       3.50952636       5.16488066
C        1.76501279      -1.76501279       1.76501279
H        1.69323368      -2.83266729       1.59708639
C        2.57633284      -1.20504065       2.80126191
H        2.59592458      -0.13280482       2.94520474
C        3.32766465      -2.07273516       3.73228864
O        3.36434934      -3.28940873       3.59871920
C        4.00638445      -1.35823321       4.84321055
C        4.56087526      -2.06345241       5.83885177
C        5.19442951      -1.44176728       6.97994967
C        5.69288689      -2.14858010       8.00555218
C        6.30962834      -1.43996332       9.15617713
O        6.38467251      -0.21984731       9.22764146
C        6.82927923      -2.32164733      10.22249021
H        6.72945015      -3.39377928      10.11824348
C        7.46508060      -1.77905264      11.38304499
H        7.59098756      -0.71416280      11.53665817
Br       8.13426234      -2.88211848      12.70279981
H        4.00833333      -0.27497236       4.83602416
H        4.52408231      -3.15284776       5.81406115
H        5.25005837      -0.35344449       6.99692968
H        5.65194375      -3.23093885       8.02780938
C       -0.00445707       0.01189536      -1.78238275
H       -0.66409135       0.67374010      -2.43557963
H        0.65740317      -0.63156657      -2.45157240
C       -0.90989263      -0.90692880      -0.91072765
C        0.90977584       0.90977584      -0.90977584
C       -0.00465871       1.77757030       0.00794375
H       -0.66225468       2.44313916      -0.64384735
H        0.64322798       2.43503045       0.67728295
C       -1.78241447       0.00034974      -0.00472694
H       -2.45427497      -0.65498947       0.64260836
H       -2.43311707       0.67328779      -0.65473579
C       -0.91132561       0.90220522       0.91563759
C       -0.01476271      -0.02253852       1.78660255
H       -0.67934791      -0.69751639       2.42135241
H        0.63392994       0.61504881       2.47327442
C        0.01484550      -1.77751727      -0.01636693
H        0.67870853      -2.42144646      -0.68295456
H       -0.62264859      -2.45592969       0.64226336
C        1.78714474       0.01002794       0.00389507
H        2.44202412       0.67113390       0.66197326
H        2.45385902      -0.65136977      -0.64189061
C        0.91606151      -0.90478549       0.90901405
