114
Properties=species:S:1:pos:R:3 pbc="F F F"
C        1.76501279       1.76501279      -1.76501279
H        2.64656467       1.29398882      -2.18243387
C        1.47335154       3.15193859      -1.95734527
H        0.59252362       3.58215661      -1.49925391
C        2.39897776       4.02755098      -2.70615971
O        3.39422890       3.58921943      -3.26902894
C        2.03976407       5.46846858      -2.69959556
C        2.90462270       6.36543291      -3.19312383
C        2.65100257       7.78859486      -3.17654903
C        3.54492813       8.68846408      -3.61362696
C        3.22412000      10.13716913      -3.54447967
O        2.16972029      10.56772353      -3.09471746
C        4.28100453      11.03267667      -4.05973557
H        5.20007504      10.60448580      -4.43691206
C        4.10354315      12.45179638      -4.07183869
H        3.20360041      12.93156339      -3.70664472
H        1.09286535       5.76295432      -2.26351017
H        3.85353065       6.02725319      -3.61020738
H        1.69464223       8.12732195      -2.77846836
H        4.50795695       8.39152315      -4.01121187
C        5.12655748      13.32224894      -4.59083197
C        5.98333198      14.05125297      -5.02548884
Br       7.36866388      15.22999081      -5.72829223
C       -1.76501279      -1.76501279      -1.76501279
H       -2.02963752      -2.73389551      -1.35945432
C       -2.14811472      -1.35418489      -3.08033579
H       -1.83846588      -0.38552538      -3.44994289
C       -2.89326537      -2.26432365      -3.97509942
O       -3.29344637      -3.35911688      -3.59991402
C       -3.09335401      -1.75780779      -5.35666641
C       -3.59526576      -2.57576867      -6.29214501
C       -3.77232096      -2.17421984      -7.66960565
C       -4.21577914      -3.01396361      -8.61727642
C       -4.35095144      -2.53722246     -10.01759490
O       -4.06775708      -1.39809171     -10.36631250
C       -4.85402632      -3.54752025     -10.97187021
H       -5.07999693      -4.54424803     -10.61722795
C       -5.05094770      -3.22496840     -12.35126212
H       -4.84085262      -2.24313027     -12.75782563
H       -2.79644859      -0.74070344      -5.58217782
H       -3.86807267      -3.59720850      -6.02571006
H       -3.51912568      -1.14759079      -7.93371606
H       -4.47268484      -4.04274106      -8.39526607
C       -5.55832556      -4.20488115     -13.27643168
C       -5.98325452      -5.02555807     -14.05126118
Br      -6.67032871      -6.35252325     -15.30409496
C       -1.76501279       1.76501279       1.76501279
H       -1.33539945       2.70838776       2.07920015
C       -3.05197052       1.32410639       2.20655849
H       -3.42771860       0.36195877       1.88425677
C       -3.84482456       2.12618036       3.16168353
O       -3.48182202       3.23389230       3.53676295
C       -5.09068759       1.47576422       3.64137640
C       -5.78480274       2.03778362       4.64059308
C       -6.97799861       1.44084069       5.19730715
C       -7.63540923       1.97279298       6.23881696
C       -8.84222561       1.29086246       6.77268073
O       -9.27751630       0.24353371       6.31111127
C       -9.48594914       1.97185158       7.91561605
H       -9.05698707       2.88977074       8.29471509
C      -10.66701993       1.43900028       8.52115801
H      -11.13691360       0.52431737       8.18057755
H       -5.39195817       0.53899479       3.18837689
H       -5.43842432       2.97445151       5.07811540
H       -7.33719765       0.51504348       4.74819140
H       -7.30677648       2.88850819       6.71540731
C      -11.30367706       2.11297484       9.62298648
C      -11.83687741       2.67742854      10.54576783
Br     -12.69901727       3.59010243      12.03782722
C        1.76501279      -1.76501279       1.76501279
H        1.69652718      -1.59405730       2.83240287
C        2.68082624      -2.70515768       1.19665149
H        2.72925872      -2.82257522       0.12210019
C        3.62068928      -3.46278925       2.04920992
O        3.59059190      -3.39064034       3.27124503
C        4.60783206      -4.29004967       1.30994648
C        5.61346900      -4.87076465       1.97894578
C        6.64222442      -5.64838979       1.32553225
C        7.68221957      -6.17593145       1.98886815
C        8.71424049      -6.94461731       1.24691100
O        8.67345893      -7.12260839       0.03609396
C        9.80813190      -7.48279229       2.08249258
H        9.80550721      -7.28914515       3.14682055
C       10.86288559      -8.25802999       1.50626264
H       10.91308188      -8.48127548       0.44745117
H        4.50663798      -4.37772549       0.23496638
H        5.68621834      -4.74522626       3.05954662
H        6.56031010      -5.79187044       0.24825200
H        7.80141021      -6.05091108       3.05837069
C       11.91840505      -8.79715433       2.32407900
C       12.80240261      -9.24867097       3.00900020
Br      14.23175189      -9.97873518       4.11645985
C       -0.00445707       0.01189536      -1.78238275
H       -0.66409135       0.67374010      -2.43557963
H        0.65740317      -0.63156657      -2.45157240
C       -0.90989263      -0.90692880      -0.91072765
C        0.90977584       0.90977584      -0.90977584
C       -0.00465871       1.77757030       0.00794375
H       -0.66225468       2.44313916      -0.64384735
H        0.64322798       2.43503045       0.67728295
C       -1.78241447       0.00034974      -0.00472694
H       -2.45427497      -0.65498947       0.64260836
H       -2.43311707       0.67328779      -0.65473579
C       -0.91132561       0.90220522       0.91563759
C       -0.01476271      -0.02253852       1.78660255
H       -0.67934791      -0.69751639       2.42135241
H        0.63392994       0.61504881       2.47327442
C        0.01484550      -1.77751727      -0.01636693
H        0.67870853      -2.42144646      -0.68295456
H       -0.62264859      -2.45592969       0.64226336
C        1.78714474       0.01002794       0.00389507
H        2.44202412       0.67113390       0.66197326
H        2.45385902      -0.65136977      -0.64189061
C        0.91606151      -0.90478549       0.90901405
