130
Properties=species:S:1:pos:R:3 pbc="F F F"
C        1.76561026       1.76561026      -1.76561026
H        1.72936824       1.56553178      -2.82977717
C        2.61525356       2.76805276      -1.20116775
H        2.62137929       2.92280739      -0.13046075
C        3.51402936       3.57325604      -2.05399868
O        3.53539716       3.45105105      -3.27177649
C        4.38720249       4.52114387      -1.32077812
C        5.28934021       5.24476464      -1.99711621
C        6.15521671       6.13448097      -1.33719533
C        6.88816422       6.88761753      -0.77858861
C        7.73063549       7.75330287      -0.13649902
C        8.46358301       8.50643943       0.42210770
C        9.32945951       9.39615576       1.08202858
C       10.62128492       9.09984477       1.27703447
C       11.49702387      10.07626540       1.97145531
O       11.08990235      11.15460988       2.38380007
C       12.90621387       9.64318613       2.12574347
C       13.77647738      10.46289681       2.72398743
H        4.28515431       4.59904158      -0.24505239
H        5.38251992       5.15141498      -3.07709261
H        8.91686000      10.34160920       1.42772797
H       11.04888873       8.16440593       0.93758309
H       13.20321126       8.67256404       1.75064364
H       13.50117193      11.44095691       3.10647433
C       15.16604746      10.14331877       2.92539460
C       16.32981241       9.87567216       3.09407311
Br      18.21152190       9.44291022       3.36681198
C       -1.76561026      -1.76561026      -1.76561026
H       -2.69428579      -2.10652332      -1.32386809
C       -1.35747865      -2.14393282      -3.08306260
H       -0.41575346      -1.78368738      -3.47520659
C       -2.18500616      -3.05016789      -3.90611003
O       -3.26612715      -3.47360780      -3.51848975
C       -1.59887091      -3.41077179      -5.21948178
C       -2.23760322      -4.28454538      -6.00907246
C       -1.70285754      -4.67446072      -7.24957475
C       -1.25021173      -5.00451537      -8.29964327
C       -0.72992004      -5.38388461      -9.50663272
C       -0.27727423      -5.71393926     -10.55670124
C        0.25747144      -6.10385460     -11.79720353
C        0.82733436      -7.30427702     -11.96715256
C        1.36946147      -7.67261756     -13.29867788
O        1.32338679      -6.92057962     -14.26351933
C        1.97104506      -9.02550454     -13.36919704
C        2.47147544      -9.45466406     -14.53219815
H       -0.65381720      -2.96692078      -5.50851031
H       -3.18386462      -4.72509448      -5.70206841
H        0.18960634      -5.39802300     -12.62232456
H        0.90134481      -8.01971333     -11.15734306
H        1.99282356      -9.63954282     -12.47841241
H        2.45923341      -8.85664597     -15.43824195
C        3.07700905     -10.74868667     -14.71229401
C        3.58414345     -11.83243061     -14.86312430
Br       4.40413688     -13.58475290     -15.10700412
C       -1.76561026       1.76561026       1.76561026
H       -2.16035290       1.30238832       2.66193597
C       -2.07608040       3.11197147       1.39642220
H       -1.66342640       3.52539964       0.48582139
C       -2.98236620       3.93818729       2.22073059
O       -3.46354091       3.52643157       3.26825222
C       -3.26815291       5.28663588       1.67433568
C       -4.13573623       6.08543309       2.31005173
C       -4.45566676       7.36031843       1.81090781
C       -4.72648058       8.43949126       1.38839853
C       -5.03775601       9.67993410       0.90274726
C       -5.30856984      10.75910692       0.48023798
C       -5.62850036      12.03399227      -0.01890594
C       -6.79760614      12.27389885      -0.62740977
C       -7.09218418      13.63908427      -1.12943448
O       -6.30590927      14.57044085      -1.01563795
C       -8.41608289      13.78706430      -1.77949067
C       -8.77956756      14.98482013      -2.24900094
H       -2.77587116       5.59387913       0.75949799
H       -4.62546380       5.76006298       3.22550072
H       -4.89463036      12.82686003       0.10925084
H       -7.54022787      11.49694192      -0.76145821
H       -9.06268882      12.92316833      -1.86072549
H       -8.14798468      15.86496329      -2.17729346
C      -10.04030355      15.23999479      -2.89632671
C      -11.09616995      15.45370356      -3.43846204
Br     -12.80341660      15.79925257      -4.31504903
C        1.76561026      -1.76561026       1.76561026
H        2.62117018      -2.22155629       1.28195073
C        1.44579420      -1.99875472       3.13992514
H        0.57447513      -1.52647684       3.57369545
C        2.26656264      -2.90478771       3.96993372
O        3.27156605      -3.45171285       3.53494580
C        1.77109288      -3.10499996       5.35303163
C        2.40409946      -3.96488910       6.16223249
C        1.95086546      -4.20461928       7.47140827
C        1.56721840      -4.40754504       8.57960693
C        1.12623724      -4.64078721       9.85341292
C        0.74259018      -4.84371298      10.96161158
C        0.28935618      -5.08344315      12.27078736
C       -0.35853102      -6.21134728      12.59127896
C       -0.80933567      -6.42164698      13.98952266
O       -0.61783805      -5.60103593      14.87751428
C       -1.50979841      -7.70617028      14.22728466
C       -1.93895948      -7.99415131      15.46019493
H        0.89415211      -2.55776138       5.67733479
H        3.28092380      -4.51040935       5.81969435
H        0.48645120      -4.32192392      13.02236611
H       -0.56115606      -6.98062320      11.85624444
H       -1.65949516      -8.38592151      13.39870531
H       -1.79868296      -7.32823194      16.30610553
C       -2.62893727      -9.21102369      15.80188521
C       -3.20679368     -10.23015431      16.08805083
Br      -4.14113861     -11.87800232      16.55075643
C       -0.00445707       0.01189536      -1.78238275
H       -0.66409135       0.67374010      -2.43557963
H        0.65740317      -0.63156657      -2.45157240
C       -0.90989263      -0.90692880      -0.91072765
C        0.90977584       0.90977584      -0.90977584
C       -0.00465871       1.77757030       0.00794375
H       -0.66225468       2.44313916      -0.64384735
H        0.64322798       2.43503045       0.67728295
C       -1.78241447       0.00034974      -0.00472694
H       -2.45427497      -0.65498947       0.64260836
H       -2.43311707       0.67328779      -0.65473579
C       -0.91132561       0.90220522       0.91563759
C       -0.01476271      -0.02253852       1.78660255
H       -0.67934791      -0.69751639       2.42135241
H        0.63392994       0.61504881       2.47327442
C        0.01484550      -1.77751727      -0.01636693
H        0.67870853      -2.42144646      -0.68295456
H       -0.62264859      -2.45592969       0.64226336
C        1.78714474       0.01002794       0.00389507
H        2.44202412       0.67113390       0.66197326
H        2.45385902      -0.65136977      -0.64189061
C        0.91606151      -0.90478549       0.90901405
