93
Properties=species:S:1:pos:R:3 pbc="F F F"
C        0.00000000       0.00000000       0.00000000
C        0.88360691       0.88360691      -0.88360691
C        0.64252793       2.25041980      -0.95437958
C        1.45739425       3.04978759      -1.76239571
C        2.51799432       2.51804146      -2.51191584
N        3.25645724       3.37659449      -3.25553235
N        4.30765370       2.75860517      -4.07967132
C        5.10463245       3.61806726      -4.75838678
C        5.04098774       5.01939561      -4.68721382
C        5.91191865       5.84000940      -5.41204683
C        6.87267636       5.26061479      -6.23062228
Br       8.06141366       6.36007077      -7.21286158
C        6.96810188       3.87772273      -6.33129124
C        6.08849372       3.07435006      -5.59833223
C        2.72692150       1.13286992      -2.41245062
C        1.92350344       0.31637209      -1.60952436
H       -0.16109188       2.71444280      -0.39791123
H        1.27945239       4.12059624      -1.82475701
H        4.28876713       5.46737802      -4.04179622
H        5.81589651       6.91322874      -5.31432107
H        7.70845299       3.40447828      -6.96237374
H        6.15430573       1.99135077      -5.66724591
H        3.54481076       0.69435691      -2.98023749
H        2.13416967      -0.74430825      -1.57184736
C       -0.88360691      -0.88360691      -0.88360691
C       -1.20028487      -2.17321858      -0.47382386
C       -2.01083023      -2.97179232      -1.28695500
C       -2.51968178      -2.51560337      -2.51266647
N       -3.30478145      -3.36113289      -3.22266975
N       -3.75041876      -2.86197302      -4.53353841
C       -4.60486323      -3.66626552      -5.20995775
C       -5.12946233      -4.88055302      -4.73758182
C       -6.02036517      -5.64902969      -5.49458002
C       -6.40389462      -5.20621646      -6.75380234
Br      -7.61359355      -6.23426217      -7.78649028
C       -5.90636401      -4.01112736      -7.25962448
C       -5.01700329      -3.25685653      -6.48731619
C       -2.17542145      -1.20728451      -2.88953608
C       -1.36663480      -0.39262654      -2.09013855
H       -0.83603951      -2.57689375       0.46167111
H       -2.26658340      -3.98188617      -0.97633606
H       -4.82815854      -5.22050194      -3.74928088
H       -6.39265734      -6.57468832      -5.07610067
H       -6.19111639      -3.64661220      -8.23757642
H       -4.62229190      -2.31941094      -6.87119958
H       -2.55924398      -0.82652655      -3.83363463
H       -1.13677175       0.60771757      -2.43265460
C       -0.88360691       0.88360691       0.88360691
C       -2.22708269       0.56972871       1.05051591
C       -3.02553207       1.38173006       1.86231543
C       -2.51623018       2.51234408       2.51937736
N       -3.36764556       3.22854137       3.29239715
N       -2.80263849       4.44501396       3.89827775
C       -3.62241506       5.11819525       4.74047619
C       -4.91573398       4.71761919       5.11424401
C       -5.69652773       5.46433300       6.00311415
C       -5.18604308       6.64005273       6.53781762
Br      -6.23052783       7.65730935       7.74650883
C       -3.91144437       7.07329525       6.19237623
C       -3.14618439       6.31257820       5.30241342
C       -1.15442874       2.79417344       2.32363985
C       -0.33902154       1.99415755       1.51622080
H       -2.67309107      -0.29008705       0.56825813
H       -4.07765326       1.14549338       2.00165900
H       -5.30882799       3.79417631       4.69493706
H       -6.68482170       5.10338937       6.25523526
H       -3.49332192       7.98559736       6.59638574
H       -2.14705124       6.64000746       5.02584371
H       -0.73224112       3.66298913       2.82417490
H        0.70373122       2.26074817       1.40469183
C        0.88360691      -0.88360691       0.88360691
C        1.17041814      -0.49132065       2.18558853
C        1.97641685      -1.30711534       2.98604537
C        2.51202508      -2.51715198       2.51877456
N        3.27208366      -3.24182504       3.37467538
N        3.87031424      -4.46330023       2.81231572
C        4.55962901      -5.23645724       3.68500025
C        4.69022202      -4.99490129       5.06247386
C        5.41059900      -5.85179839       5.90157749
C        6.01959150      -6.97893805       5.36538388
Br       6.99303273      -8.15003247       6.49128081
C        5.91669637      -7.25357150       4.00684799
C        5.19175146      -6.38494373       3.18448081
C        2.19836132      -2.87609725       1.19778347
C        1.39362645      -2.07432608       0.38144737
H        0.78425019       0.43133144       2.59834342
H        2.20659397      -1.01147958       4.00673209
H        4.20819484      -4.11247326       5.47727326
H        5.47383629      -5.61437218       6.95523786
H        6.38258678      -8.12540762       3.56731061
H        5.10249047      -6.58988560       2.12052635
H        2.59744481      -3.81125549       0.81070485
H        1.18515941      -2.40430773      -0.62775837
