197
Properties=species:S:1:pos:R:3 pbc="F F F"
C        0.00000000       0.00000000       0.00000000
C        0.88403175       0.88403175      -0.88403175
C        0.42400418       1.30648082      -2.12777959
C        1.23138257       2.11819348      -2.92242727
C        2.50199152       2.53429499      -2.49968579
C        2.94298095       2.07600351      -1.25042393
C        2.14610019       1.26315029      -0.43849552
N        3.31950202       3.32706816      -3.22889510
N        2.58629472       4.25809502      -4.10303845
C        3.35876779       5.10899616      -4.81511815
C        2.79845511       6.33163762      -5.21188109
C        3.51915859       7.27496162      -5.95304129
C        4.83183045       7.00481485      -6.33261660
C        5.41091688       5.79030579      -5.97181334
C        4.67841392       4.85976726      -5.22255654
C        5.57481878       7.97546294      -7.07868318
C        6.18270642       8.80985925      -7.69565153
C        6.94509352       9.88882781      -8.47606852
C        7.54092257      10.73690216      -9.08588282
C        8.25800196      11.74372851      -9.81064933
C        7.63966356      12.94522814     -10.15152691
C        8.35370388      13.92450231     -10.85654657
C        9.69398299      13.74727789     -11.23088470
C       10.28298137      12.52126554     -10.88196838
C        9.58304623      11.53003985     -10.18133805
N       10.30734361      14.74706878     -11.91125611
N       11.77903635      14.68453342     -11.90479608
C       12.41250356      15.65521872     -12.60090666
C       11.79878677      16.55529493     -13.48480755
C       12.53062361      17.52116680     -14.18150262
C       13.90617169      17.59938191     -13.99853416
C       14.55096756      16.72621532     -13.13044183
C       13.80177106      15.76638401     -12.44573982
Br      14.91012619      18.90136223     -14.93832387
H       -0.55234293       1.02993705      -2.50134326
H        0.88340060       2.46105831      -3.89485506
H        3.92682065       2.39684209      -0.91639526
H        2.52638717       0.95415589       0.52629032
H        1.77735935       6.54510849      -4.90806040
H        3.04345850       8.21175606      -6.21505718
H        6.42761589       5.54597910      -6.25325272
H        5.13815118       3.91584853      -4.94302087
H        6.61084093      13.14117354      -9.87567718
H        7.87676581      14.86481800     -11.12001957
H       11.31727400      12.34941223     -11.17045291
H       10.09508862      10.60788384      -9.93603580
H       10.72202571      16.48226089     -13.62086517
H       12.00333853      18.18735534     -14.85045387
H       15.61913514      16.76959746     -12.96975770
H       14.28767467      15.07640927     -11.76145413
C       -0.88403175      -0.88403175      -0.88403175
C       -0.33421278      -1.54644659      -1.97760522
C       -1.14391586      -2.35614494      -2.77194251
C       -2.50718226      -2.53329202      -2.49549802
C       -3.03364731      -1.83742161      -1.39833946
C       -2.23632193      -1.02261462      -0.58880946
N       -3.33252409      -3.31320338      -3.22973781
N       -2.64046884      -4.45377585      -3.85318350
C       -3.43272705      -5.29394971      -4.55620535
C       -3.01677277      -6.62532663      -4.69987442
C       -3.76848398      -7.56723898      -5.41143853
C       -4.96394078      -7.18793340      -6.01738772
C       -5.39480566      -5.86750508      -5.91072527
C       -4.63453004      -4.93844079      -5.18776690
C       -5.74097747      -8.15443791      -6.73354951
C       -6.38195245      -8.98562232      -7.32064244
C       -7.18988455     -10.06090957      -8.05919573
C       -7.82205277     -10.90599313      -8.63566165
C       -8.58197206     -11.90811630      -9.32229145
C       -8.11329314     -13.21792851      -9.40519695
C       -8.86865389     -14.19046742     -10.07563144
C      -10.10590748     -13.89779139     -10.66844670
C      -10.54318464     -12.56659226     -10.57643839
C       -9.79925948     -11.58115909      -9.91400555
N      -10.76896277     -14.89989905     -11.29680669
N      -12.20224162     -14.64473744     -11.52138679
C      -12.87852869     -15.61807498     -12.17202528
C      -12.29758181     -16.71413682     -12.82717062
C      -13.06944179     -17.66995219     -13.49389906
C      -14.45295980     -17.53858317     -13.51254479
C      -15.06635652     -16.46720447     -12.87406372
C      -14.27683037     -15.52139785     -12.21566667
Br     -15.51042565     -18.82481931     -14.41456733
H        0.71318392      -1.46001665      -2.23210466
H       -0.72739600      -2.88484054      -3.62707742
H       -4.08990567      -1.97225023      -1.17790210
H       -2.68861662      -0.52402548       0.25838936
H       -2.08848158      -6.92234696      -4.21969970
H       -3.40983492      -8.58707373      -5.47336310
H       -6.31705351      -5.53744303      -6.37235117
H       -4.97875790      -3.91106718      -5.10719549
H       -7.17111287     -13.50302394      -8.95355485
H       -8.50913378     -15.21413491     -10.13833469
H      -11.49271382     -12.30629614     -11.03812918
H      -10.19353939     -10.57343180      -9.87203708
H      -11.21373460     -16.80431688     -12.80710029
H      -12.56595868     -18.49300364     -13.98218541
H      -16.14052512     -16.34537259     -12.87259258
H      -14.73818037     -14.67814565     -11.70921205
C       -0.88403175       0.88403175       0.88403175
C       -1.64797428       1.89748561       0.31280470
C       -2.45667865       2.69188380       1.12344086
C       -2.53243317       2.49395809       2.50958104
C       -1.73635375       1.47745478       3.05559985
C       -0.92082621       0.66903483       2.25788496
N       -3.30663042       3.23131693       3.33751793
N       -4.52507198       3.73825116       2.68410504
C       -5.35928416       4.43871445       3.48488349
C       -6.71996943       4.47403534       3.14796906
C       -7.65853433       5.17420420       3.91442297
C       -7.24730642       5.87813689       5.04381859
C       -5.89901477       5.87997613       5.39404511
C       -4.97303039       5.16712349       4.62058384
C       -8.20912551       6.58302975       5.83680964
C       -9.03607393       7.15878110       6.49336218
C      -10.10581837       7.88136780       7.32280369
C      -10.94645861       8.44512007       7.97212887
C      -11.94288521       9.11732649       8.75216810
C      -13.28136280       9.09002274       8.36503307
C      -14.24755110       9.74759992       9.13960173
C      -13.91922244      10.43589207      10.31703107
C      -12.56076093      10.45339670      10.67205766
C      -11.58155222       9.80531261       9.90755930
N      -14.91774809      11.04379342      11.00412699
N      -14.59105753      11.37570509      12.40160323
C      -15.56156399      12.00840064      13.09866432
C      -16.73097195      12.55680076      12.55111653
C      -17.67926071      13.21276971      13.34126262
C      -17.46557528      13.32882073      14.70969175
C      -16.31985994      12.79761894      15.29014583
C      -15.38315252      12.14819772      14.48254465
Br     -18.74085337      14.21756002      15.79139890
H       -1.64197212       2.08847570      -0.75151044
H       -3.06390787       3.48458548       0.69082061
H       -1.79222881       1.31802569       4.12980349
H       -0.34192495      -0.11527660       2.72760439
H       -7.04114419       3.91766206       2.27172199
H       -8.70013750       5.15073452       3.61939972
H       -5.54409583       6.41948992       6.26326197
H       -3.92358785       5.17154493       4.90188779
H      -13.59334914       8.56189541       7.47244710
H      -15.29307518       9.72461670       8.84391150
H      -12.27367969      10.99050205      11.57295740
H      -10.55113530       9.85022913      10.23764384
H      -16.88533546      12.46121827      11.47859804
H      -18.56123583      13.61656403      12.86334787
H      -16.13316390      12.87304151      16.35228489
H      -14.48244039      11.72480833      14.91828936
C        0.88403175      -0.88403175       0.88403175
C        1.07638332      -2.22343235       0.55844892
C        1.88961416      -3.01893812       1.36345104
C        2.53398990      -2.50437744       2.49760496
C        2.30440764      -1.15679540       2.80820535
C        1.49373714      -0.34284512       2.01116374
N        3.33830183      -3.23165155       3.30551190
N        4.03694703      -4.31573515       2.59474600
C        4.89398533      -5.04021393       3.34868285
C        5.96368226      -5.67597120       2.70232037
C        6.90034148      -6.44879514       3.39802488
C        6.77644615      -6.61773892       4.77507682
C        5.71292030      -6.01609351       5.44402220
C        4.78812931      -5.23864317       4.73396525
C        7.74251805      -7.39651433       5.48993251
C        8.57160594      -8.04591538       6.07069588
C        9.64248510      -8.87156391       6.79594084
C       10.48416175      -9.51742474       7.36212105
C       11.48469077     -10.28375104       8.04393799
C       12.53229841     -10.86889200       7.33522819
C       13.50782354     -11.61225093       8.01467829
C       13.47977112     -11.78596234       9.40641211
C       12.40488821     -11.19308538      10.08824171
C       11.41911063     -10.45054443       9.42476907
N       14.46403908     -12.52071672       9.98091271
N       14.61527595     -12.32064956      11.43244034
C       15.57189220     -13.06414072      12.03259602
C       16.25612905     -14.13834942      11.44441078
C       17.22210476     -14.86937427      12.14181401
C       17.51981951     -14.52837235      13.45589589
C       16.86448576     -13.46965316      14.07348578
C       15.90043564     -12.75344901      13.36001024
Br      18.82436894     -15.51223572      14.41320763
H        0.61752076      -2.67287034      -0.31145371
H        2.05402797      -4.06649411       1.11879188
H        2.80286578      -0.75159939       3.68559282
H        1.36626064       0.69638972       2.28438182
H        6.06440058      -5.53663249       1.62949517
H        7.71854310      -6.90052474       2.85120390
H        5.58409050      -6.12957383       6.51318338
H        3.96283616      -4.77069451       5.26348991
H       12.61119085     -10.75545702       6.26104378
H       14.32912054     -12.06607301       7.46640983
H       12.34884582     -11.32170344      11.16658988
H       10.61841064     -10.01276602      10.00783160
H       16.01239055     -14.39654599      10.41621523
H       17.71617818     -15.68807855      11.63689101
H       17.08097237     -13.18409436      15.09342357
H       15.37898279     -11.92146328      13.82509200
