118
Properties=species:S:1:pos:R:3 pbc="F F F"
C        1.82907652       1.82907652      -1.82907652
C        3.28531311       1.64074081      -1.42744238
C        4.26620446       2.54186069      -2.18247478
N        3.91484647       3.95190404      -2.21221588
C        4.08132954       4.59118682      -0.91020460
C        3.80345265       6.05661249      -1.06882648
C        4.69274893       7.06670098      -0.74525785
S        4.05995255       8.63002791      -1.02836571
C        2.57976220       7.98800983      -1.58797046
C        2.57044070       6.61192525      -1.55518125
H        1.47478263       2.84997077      -1.67304828
H        1.62806944       1.52030966      -2.85639231
H        3.57024926       0.58877592      -1.56755921
H        3.39112234       1.83268077      -0.35103117
H        5.28225157       2.39636322      -1.79687218
H        4.52448167       4.41720909      -2.88514151
H        5.09869156       4.44035235      -0.52971787
H        3.37747263       4.18271945      -0.17646379
H        5.69416525       6.96531012      -0.34901600
H        1.78747692       8.64768499      -1.91400702
H        1.72172051       6.01786347      -1.87404496
C        4.36347151       2.11552770      -3.55447307
C        4.44493267       1.75847382      -4.70352163
Br       4.57664848       1.18114789      -6.56143598
C       -1.82907652      -1.82907652      -1.82907652
C       -0.96131349      -2.87068098      -2.52150183
C       -1.71923331      -3.76418204      -3.50712458
N       -2.55040237      -3.05955612      -4.46900790
C       -1.75856706      -2.35267491      -5.47147898
C       -2.69924031      -1.75455890      -6.47509242
C       -2.66336322      -2.00553680      -7.83580774
S       -3.86290572      -1.15073475      -8.70470570
C       -4.45478649      -0.42355227      -7.27740372
C       -3.74898914      -0.82328500      -6.16527306
H       -2.31739842      -1.14977125      -2.53063202
H       -2.57225652      -2.27003799      -1.16247691
H       -0.46601736      -3.49533375      -1.76523328
H       -0.14965815      -2.36402901      -3.06114712
H       -1.02121167      -4.44304183      -4.01123348
H       -3.13990448      -3.74498469      -4.94194309
H       -1.06165040      -3.03678094      -5.97033044
H       -1.17684513      -1.54308646      -5.01672429
H       -1.98306490      -2.65366494      -8.37176153
H       -5.29040237       0.26136219      -7.32012875
H       -3.97475348      -0.47487772      -5.16399774
C       -2.59227334      -4.65441368      -2.78678526
C       -3.32344435      -5.39998269      -2.18350108
Br      -4.50568605      -6.60550471      -1.20804159
C       -1.82907652       1.82907652       1.82907652
C       -0.95231040       2.82225794       2.57892795
C       -1.71319547       3.70882391       3.56852054
N       -2.59432582       3.00170607       4.48293450
C       -1.85526844       2.24108375       5.48636876
C       -2.84390305       1.64250551       6.44248307
C       -2.84250402       1.85145047       7.81075326
S       -4.09329244       1.00843303       8.61662070
C       -4.66237110       0.34285604       7.15051534
C       -3.91098312       0.75372079       6.07284329
H       -2.35889291       1.14447162       2.49443715
H       -2.53783137       2.31247949       1.15446056
H       -0.41547390       3.45368207       1.85742841
H       -0.17319401       2.27491085       3.12672942
H       -1.01105695       4.35046061       4.11396941
H       -3.17736527       3.69053231       4.95893469
H       -1.15391490       2.88815314       6.02669375
H       -1.28427578       1.42790835       5.02447175
H       -2.15997335       2.46197790       8.38654011
H       -5.51901689      -0.31694196       7.14709400
H       -4.11608956       0.44254075       5.05499863
C       -2.53659728       4.64669324       2.85018177
C       -3.22619629       5.43215880       2.24857304
Br      -4.34121957       6.70219017       1.27582261
C        1.82907652      -1.82907652       1.82907652
C        3.24464808      -1.83963861       1.26920962
C        4.20886841      -2.76365465       2.01801687
N        3.72686315      -4.11768605       2.23441719
C        3.68818722      -4.89524411       0.99928963
C        3.28742837      -6.29944414       1.34201912
C        4.03360222      -7.42661867       1.04448688
S        3.28563988      -8.87709233       1.55561397
C        1.94451912      -8.02703499       2.18418837
C        2.06605345      -6.66784152       2.00365223
H        1.36203221      -2.81592927       1.81984021
H        1.77159373      -1.40157569       2.83160199
H        3.64438514      -0.81608982       1.26610942
H        3.21403614      -2.14604398       0.21475416
H        5.18650778      -2.76736750       1.52161170
H        4.35743836      -4.57835574       2.89103817
H        4.66820231      -4.89332004       0.50723943
H        2.95226417      -4.48653789       0.29785382
H        4.99131020      -7.47342108       0.54376009
H        1.13161712      -8.56205042       2.65550139
H        1.31890828      -5.95710234       2.33761832
C        4.49527130      -2.21850047       3.31970051
C        4.73513372      -1.76193384       4.40986056
Br       5.12297097      -1.02370422       6.17255716
C       -0.00445707       0.01189536      -1.78238275
H       -0.66409135       0.67374010      -2.43557963
H        0.65740317      -0.63156657      -2.45157240
C       -0.90989263      -0.90692880      -0.91072765
C        0.90977584       0.90977584      -0.90977584
C       -0.00465871       1.77757030       0.00794375
H       -0.66225468       2.44313916      -0.64384735
H        0.64322798       2.43503045       0.67728295
C       -1.78241447       0.00034974      -0.00472694
H       -2.45427497      -0.65498947       0.64260836
H       -2.43311707       0.67328779      -0.65473579
C       -0.91132561       0.90220522       0.91563759
C       -0.01476271      -0.02253852       1.78660255
H       -0.67934791      -0.69751639       2.42135241
H        0.63392994       0.61504881       2.47327442
C        0.01484550      -1.77751727      -0.01636693
H        0.67870853      -2.42144646      -0.68295456
H       -0.62264859      -2.45592969       0.64226336
C        1.78714474       0.01002794       0.00389507
H        2.44202412       0.67113390       0.66197326
H        2.45385902      -0.65136977      -0.64189061
C        0.91606151      -0.90478549       0.90901405
