110
Properties=species:S:1:pos:R:3 pbc="F F F"
C        1.82907652       1.82907652      -1.82907652
C        3.28531311       1.64074081      -1.42744238
C        4.26620446       2.54186069      -2.18247478
Br       4.39857018       1.96168607      -4.04955661
N        3.91484647       3.95190404      -2.21221588
C        4.08132954       4.59118682      -0.91020460
C        3.80345265       6.05661249      -1.06882648
C        4.69274893       7.06670098      -0.74525785
S        4.05995255       8.63002791      -1.02836571
C        2.57976220       7.98800983      -1.58797046
C        2.57044070       6.61192525      -1.55518125
H        1.47478263       2.84997077      -1.67304828
H        1.62806944       1.52030966      -2.85639231
H        3.57024926       0.58877592      -1.56755921
H        3.39112234       1.83268077      -0.35103117
H        5.28225157       2.39636322      -1.79687218
H        4.52448167       4.41720909      -2.88514151
H        5.09869156       4.44035235      -0.52971787
H        3.37747263       4.18271945      -0.17646379
H        5.69416525       6.96531012      -0.34901600
H        1.78747692       8.64768499      -1.91400702
H        1.72172051       6.01786347      -1.87404496
C       -1.82907652      -1.82907652      -1.82907652
C       -3.20523875      -1.95726462      -1.19099293
C       -4.15871154      -2.89371538      -1.93811301
Br      -4.69670550      -2.07690626      -3.63620111
N       -3.61419476      -4.20151626      -2.26325537
C       -3.45649008      -5.04453457      -1.08169631
C       -2.99772313      -6.40003862      -1.53112988
C       -3.65895846      -7.58546434      -1.26028496
S       -2.86174661      -8.95644814      -1.90015142
C       -1.61185347      -7.99226202      -2.55162699
C       -1.79961542      -6.65544499      -2.28248678
H       -1.30676525      -2.78475672      -1.90627972
H       -1.85689241      -1.34235592      -2.80552308
H       -3.66182379      -0.96164461      -1.10311598
H       -3.09340136      -2.32094000      -0.16049292
H       -5.10269353      -2.98494086      -1.38785259
H       -4.25604476      -4.66128853      -2.90949899
H       -4.40342497      -5.13003795      -0.53529887
H       -2.70397827      -4.63272516      -0.39995245
H       -4.58035707      -7.71866987      -0.70946443
H       -0.79976892      -8.44930294      -3.10009707
H       -1.11584885      -5.88287212      -2.61490798
C       -1.82907652       1.82907652       1.82907652
C       -1.02339083       2.29724612       3.03285936
C       -1.82618344       3.12076492       4.04359156
Br      -2.25793731       4.87271949       3.27915607
N       -3.08699376       2.53055988       4.46141275
C       -2.89490473       1.36643457       5.32138166
C       -4.24251208       0.89998977       5.78638978
C       -4.61819768       0.77392592       7.11258415
S       -6.21749517       0.19870033       7.30215067
C       -6.44069065       0.10328197       5.61176986
C       -5.31755315       0.49880160       4.92119244
H       -2.68344927       1.20826541       2.10608702
H       -2.15997514       2.65185232       1.19294396
H       -0.15745504       2.87992134       2.68920801
H       -0.60308025       1.42314997       3.54860406
H       -1.19959358       3.36682495       4.90906845
H       -3.61214218       3.23597421       4.97871589
H       -2.26618128       1.61893655       6.18364395
H       -2.41415992       0.54689782       4.77559813
H       -4.02634664       0.99036201       7.99178272
H       -7.38246721      -0.23750078       5.20420250
H       -5.26235081       0.51252452       3.83875362
C        1.82907652      -1.82907652       1.82907652
C        1.12372886      -2.07409536       3.15567208
C        1.94839014      -2.87586507       4.16628472
Br       2.10552180      -4.73553800       3.56875307
N        3.30323182      -2.39518467       4.38054991
C        3.33312531      -1.13403511       5.11556054
C        4.76636852      -0.78076350       5.38175962
C        5.30368801      -0.56249117       6.63852858
S        6.96502025      -0.15929448       6.59403143
C        7.00018943      -0.26556887       4.88998418
C        5.76998901      -0.59801409       4.36954409
H        2.76929672      -1.28578538       1.94271958
H        1.99745403      -2.74588834       1.26142904
H        0.16833292      -2.58526617       2.97298530
H        0.85842424      -1.10870544       3.60770460
H        1.40387225      -2.95711636       5.11449837
H        3.80883683      -3.09923165       4.91876380
H        2.78546240      -1.22173648       6.06156291
H        2.87989755      -0.32531684       4.53144148
H        4.79813640      -0.61706926       7.59328570
H        7.91875478      -0.07979256       4.35062160
H        5.58904194      -0.71710883       3.30747817
C       -0.00445707       0.01189536      -1.78238275
H       -0.66409135       0.67374010      -2.43557963
H        0.65740317      -0.63156657      -2.45157240
C       -0.90989263      -0.90692880      -0.91072765
C        0.90977584       0.90977584      -0.90977584
C       -0.00465871       1.77757030       0.00794375
H       -0.66225468       2.44313916      -0.64384735
H        0.64322798       2.43503045       0.67728295
C       -1.78241447       0.00034974      -0.00472694
H       -2.45427497      -0.65498947       0.64260836
H       -2.43311707       0.67328779      -0.65473579
C       -0.91132561       0.90220522       0.91563759
C       -0.01476271      -0.02253852       1.78660255
H       -0.67934791      -0.69751639       2.42135241
H        0.63392994       0.61504881       2.47327442
C        0.01484550      -1.77751727      -0.01636693
H        0.67870853      -2.42144646      -0.68295456
H       -0.62264859      -2.45592969       0.64226336
C        1.78714474       0.01002794       0.00389507
H        2.44202412       0.67113390       0.66197326
H        2.45385902      -0.65136977      -0.64189061
C        0.91606151      -0.90478549       0.90901405
