118
Properties=species:S:1:pos:R:3 pbc="F F F"
C        1.82675581       1.82675581      -1.82675581
C        2.08081961       3.15529368      -1.12530372
C        3.04516512       4.05834286      -1.90172635
N        3.37938925       5.31697156      -1.24350843
C        4.07422451       5.17860477       0.03607878
C        5.37626741       4.47218132      -0.08017022
C        6.54562993       4.74064264      -0.76311055
C        7.43438689       3.68216891      -0.46476840
C        6.75440611       2.83666349       0.37835963
O        5.50042332       3.30336449       0.61237453
H        1.28403895       1.93506920      -2.76900372
H        2.75145232       1.26752058      -1.99633573
H        2.50332573       2.93309374      -0.13851455
H        1.12874402       3.67117025      -0.94483932
H        3.94071982       3.51684270      -2.22203764
H        2.52114778       5.84494040      -1.10038451
H        3.43269965       4.69960450       0.78363948
H        4.27255905       6.18698902       0.41855084
H        6.72181188       5.59752922      -1.40095316
H        8.44750498       3.55096679      -0.81881708
H        7.00738929       1.90900400       0.87467957
C        2.41824553       4.46899506      -3.13133466
C        1.89320036       4.81291627      -4.16113162
Br       1.04424674       5.36900778      -5.82622620
C       -1.82675581      -1.82675581      -1.82675581
C       -2.86621029      -0.96383028      -2.53137644
C       -3.72617783      -1.76171264      -3.51734387
N       -4.69423095      -0.97318180      -4.27245649
C       -4.11278252       0.04400616      -5.14797415
C       -3.21644352      -0.52422209      -6.18795334
C       -3.41089072      -1.40760142      -7.23089097
C       -2.15908702      -1.54935070      -7.87288649
C       -1.28185384      -0.74677704      -7.18407909
O       -1.91226100      -0.12533848      -6.15381381
H       -2.26707966      -2.56689416      -1.15413806
H       -1.15693548      -2.32416255      -2.53421061
H       -2.33027470      -0.17409321      -3.07056612
H       -3.49753250      -0.45782510      -1.78939599
H       -3.11592464      -2.39161251      -4.17206301
H       -5.32789293      -0.52332800      -3.61525176
H       -3.59951502       0.81793610      -4.56708575
H       -4.93752000       0.55526437      -5.65874161
H       -4.34683138      -1.88924044      -7.48422245
H       -1.92374391      -2.16007842      -8.73346652
H       -0.22971523      -0.51878535      -7.29321314
C       -4.54061634      -2.69498301      -2.78297589
C       -5.22270860      -3.47659694      -2.16794271
Br      -6.32559408      -4.74040057      -1.17348608
C       -1.82675581       1.82675581       1.82675581
C       -1.88113229       3.23434120       1.24594353
C       -2.83176353       4.15560980       2.01786101
N       -2.97654584       5.49821941       1.46510399
C       -3.54502844       5.55313100       0.11859106
C       -4.91257283       4.97757292       0.03847319
C       -6.11602474       5.30047138       0.63288698
C       -7.06440698       4.37238498       0.14453224
C       -6.38304941       3.54379815      -0.71413759
O       -5.07337304       3.89800226      -0.77996200
H       -1.37678334       1.78946534       2.82186319
H       -2.81237721       1.35286539       1.85006603
H       -2.21813732       3.15058884       0.20620786
H       -0.87133810       3.66348321       1.20993228
H       -3.80247564       3.68213110       2.19499342
H       -2.06239896       5.94555165       1.45852208
H       -2.87728545       5.08247837      -0.61109915
H       -3.60727065       6.60802522      -0.17429864
H       -6.27619721       6.10740135       1.33669570
H       -8.11655673       4.31419300       0.38653912
H       -6.66912514       2.69796466      -1.32537609
C       -2.29982726       4.38203276       3.33671523
C       -1.85433064       4.57166198       4.44125563
Br      -1.13400027       4.87827640       6.22720405
C        1.82675581      -1.82675581       1.82675581
C        2.52884466      -0.96427877       2.86829358
C        3.35443718      -1.79057070       3.86022647
N        3.99455917      -1.02240984       4.92290023
C        3.07413764      -0.32336304       5.81924982
C        2.15110105      -1.23932918       6.53818871
C        2.34362950      -2.27335402       7.43239960
C        1.05765714      -2.75663263       7.76703443
C        0.16375380      -1.99039064       7.05856554
O        0.81793563      -1.07056115       6.30291650
H        2.51916224      -2.32508732       1.14386231
H        1.16397140      -2.56689319       2.28444404
H        1.75682118      -0.40681619       3.41129665
H        3.15865346      -0.21526836       2.37083177
H        2.78550578      -2.63723381       4.25686057
H        4.62380011      -0.34466898       4.49800360
H        2.51835465       0.45501419       5.28532422
H        3.67540173       0.20392617       6.56952168
H        3.30183922      -2.63012757       7.78832747
H        0.81076022      -3.56354406       8.44298458
H       -0.91563610      -1.97293969       6.98441012
C        4.45780232      -2.39829634       3.16247658
C        5.38187063      -2.90726656       2.57811106
Br       6.87601093      -3.73022837       1.63324142
C       -0.00445707       0.01189536      -1.78238275
H       -0.66409135       0.67374010      -2.43557963
H        0.65740317      -0.63156657      -2.45157240
C       -0.90989263      -0.90692880      -0.91072765
C        0.90977584       0.90977584      -0.90977584
C       -0.00465871       1.77757030       0.00794375
H       -0.66225468       2.44313916      -0.64384735
H        0.64322798       2.43503045       0.67728295
C       -1.78241447       0.00034974      -0.00472694
H       -2.45427497      -0.65498947       0.64260836
H       -2.43311707       0.67328779      -0.65473579
C       -0.91132561       0.90220522       0.91563759
C       -0.01476271      -0.02253852       1.78660255
H       -0.67934791      -0.69751639       2.42135241
H        0.63392994       0.61504881       2.47327442
C        0.01484550      -1.77751727      -0.01636693
H        0.67870853      -2.42144646      -0.68295456
H       -0.62264859      -2.45592969       0.64226336
C        1.78714474       0.01002794       0.00389507
H        2.44202412       0.67113390       0.66197326
H        2.45385902      -0.65136977      -0.64189061
C        0.91606151      -0.90478549       0.90901405
