110
Properties=species:S:1:pos:R:3 pbc="F F F"
C        1.82675581       1.82675581      -1.82675581
C        2.08081961       3.15529368      -1.12530372
C        3.04516512       4.05834286      -1.90172635
Br       2.18585612       4.62121748      -3.58713146
N        3.37938925       5.31697156      -1.24350843
C        4.07422451       5.17860477       0.03607878
C        5.37626741       4.47218132      -0.08017022
C        6.54562993       4.74064264      -0.76311055
C        7.43438689       3.68216891      -0.46476840
C        6.75440611       2.83666349       0.37835963
O        5.50042332       3.30336449       0.61237453
H        1.28403895       1.93506920      -2.76900372
H        2.75145232       1.26752058      -1.99633573
H        2.50332573       2.93309374      -0.13851455
H        1.12874402       3.67117025      -0.94483932
H        3.94071982       3.51684270      -2.22203764
H        2.52114778       5.84494040      -1.10038451
H        3.43269965       4.69960450       0.78363948
H        4.27255905       6.18698902       0.41855084
H        6.72181188       5.59752922      -1.40095316
H        8.44750498       3.55096679      -0.81881708
H        7.00738929       1.90900400       0.87467957
C       -1.82675581      -1.82675581      -1.82675581
C       -2.04374876      -3.17223394      -1.14543431
C       -3.00573903      -4.07870582      -1.92078949
Br      -2.16760252      -4.59503498      -3.63156755
N       -3.30492837      -5.35499341      -1.27994745
C       -3.97844319      -5.25265061       0.01434330
C       -5.29498412      -4.56836594      -0.06526889
C       -6.47168811      -4.84593448      -0.73176052
C       -7.37381040      -3.80960272      -0.39791108
C       -6.69381819      -2.96710625       0.44821447
O       -5.42748995      -3.41476676       0.65084342
H       -1.29963272      -1.90796740      -2.78051176
H       -2.76439494      -1.28168704      -1.96922665
H       -2.45194185      -2.97576374      -0.14722843
H       -1.07932399      -3.67365076      -0.99177884
H       -3.91670422      -3.54809997      -2.21479597
H       -2.43477596      -5.86955258      -1.16214415
H       -3.33202080      -4.77551578       0.75887191
H       -4.15140315      -6.27127953       0.38168545
H       -6.64405856      -5.69423566      -1.38200003
H       -8.39549359      -3.69071478      -0.73108048
H       -6.95436030      -2.05340670       0.96605329
C       -1.82675581       1.82675581       1.82675581
C       -2.07506478       1.12836201       3.15799023
C       -2.86818331       1.99577965       4.14127138
Br      -4.69697268       2.25265087       3.44458151
N       -3.07688789       1.40426647       5.45871487
C       -1.85467486       1.14345465       6.21862099
C       -1.06444112       2.37160049       6.49257733
C       -1.32748403       3.53618550       7.18571359
C       -0.16124808       4.32992653       7.09014959
C        0.73745959       3.60303635       6.34713321
O        0.19606977       2.41490807       5.97257498
H       -2.74106314       1.99469856       1.25235017
H       -1.29121805       2.77234682       1.95174376
H       -1.09803938       0.88532471       3.59156993
H       -2.58492541       0.17098205       2.98884613
H       -2.46003757       3.00891539       4.21064721
H       -3.58960352       0.53257596       5.34429321
H       -1.23952025       0.38188003       5.72726439
H       -2.14742917       0.71080517       7.18276290
H       -2.25507403       3.77470795       7.69051227
H        0.00600426       5.31125849       7.51203462
H        1.75136286       3.77997682       6.01309975
C        1.82675581      -1.82675581       1.82675581
C        2.09713465      -1.11676658       3.14751578
C        2.89152822      -1.98211964       4.13158648
Br       4.70971042      -2.26647905       3.41801559
N        3.12100118      -1.37871466       5.44015340
C        1.91005714      -1.09636094       6.21033242
C        1.10963360      -2.31276353       6.50622182
C        1.36763058      -3.47259235       7.20916018
C        0.19190705      -4.25452696       7.13489019
C       -0.70695656      -3.52593334       6.39373319
O       -0.15687962      -2.34791156       6.00038135
H        2.73286184      -2.01088094       1.24436910
H        1.28242473      -2.76503099       1.96785291
H        1.12759071      -0.85839278       3.58895053
H        2.61543650      -0.16690059       2.96241650
H        2.47323611      -2.98992503       4.21643901
H        3.64182938      -0.51396759       5.31067572
H        1.29783843      -0.33346527       5.71736097
H        2.21799121      -0.65653894       7.16646708
H        2.29804929      -3.71576694       7.70647802
H        0.01867626      -5.22935416       7.56925843
H       -1.72630352      -3.69538315       6.07263409
C       -0.00445707       0.01189536      -1.78238275
H       -0.66409135       0.67374010      -2.43557963
H        0.65740317      -0.63156657      -2.45157240
C       -0.90989263      -0.90692880      -0.91072765
C        0.90977584       0.90977584      -0.90977584
C       -0.00465871       1.77757030       0.00794375
H       -0.66225468       2.44313916      -0.64384735
H        0.64322798       2.43503045       0.67728295
C       -1.78241447       0.00034974      -0.00472694
H       -2.45427497      -0.65498947       0.64260836
H       -2.43311707       0.67328779      -0.65473579
C       -0.91132561       0.90220522       0.91563759
C       -0.01476271      -0.02253852       1.78660255
H       -0.67934791      -0.69751639       2.42135241
H        0.63392994       0.61504881       2.47327442
C        0.01484550      -1.77751727      -0.01636693
H        0.67870853      -2.42144646      -0.68295456
H       -0.62264859      -2.45592969       0.64226336
C        1.78714474       0.01002794       0.00389507
H        2.44202412       0.67113390       0.66197326
H        2.45385902      -0.65136977      -0.64189061
C        0.91606151      -0.90478549       0.90901405
