97
Properties=species:S:1:pos:R:3 pbc="F F F"
C        0.00000000       0.00000000       0.00000000
C        0.91685179       0.91685179      -0.91685179
C        1.17091559       2.24538966      -0.21539970
C        2.13526110       3.14843884      -0.99182233
N        2.46948523       4.40706754      -0.33360440
C        3.16432048       4.26870075       0.94598280
C        4.46636338       3.56227729       0.82973380
C        5.63572591       3.83073861       0.14679348
C        6.52448286       2.77226489       0.44513562
C        5.84450208       1.92675947       1.28826365
O        4.59051930       2.39346047       1.52227855
H        0.37413493       1.02516518      -1.85909969
H        1.84154830       0.35761655      -1.08643171
H        1.59342171       2.02318972       0.77138948
H        0.21883999       2.76126623      -0.03493529
H        3.03081579       2.60693867      -1.31213362
H        1.61124376       4.93503638      -0.19048048
H        2.52279563       3.78970047       1.69354350
H        3.36265503       5.27708500       1.32845487
H        5.81190786       4.68762519      -0.49104914
H        7.53760095       2.64106276       0.09108694
H        6.09748526       0.99909997       1.78458359
C        1.50834150       3.55909103      -2.22143064
C        0.98329634       3.90301225      -3.25122759
Br       0.13434272       4.45910376      -4.91632218
C       -0.91685179      -0.91685179      -0.91685179
C       -0.72597281      -2.37767386      -0.52805827
C       -1.65606871      -3.32053820      -1.29891535
N       -1.56558469      -4.72626087      -0.91831160
C       -1.93753440      -5.01579020       0.46628617
C       -3.34027469      -4.64268331       0.78405113
C       -4.56598918      -5.05177180       0.29808994
C       -5.54315949      -4.32377014       1.01531750
C       -4.85538534      -3.51851530       1.89090274
O       -3.51613718      -3.69886181       1.75329778
H       -0.61221487      -0.70211023      -1.94407470
H       -1.94570878      -0.58024634      -0.75964143
H       -0.92777634      -2.46342598       0.54598038
H        0.32308423      -2.66850708      -0.66961867
H       -2.69087045      -2.96415511      -1.29486253
H       -0.61243480      -5.04436037      -1.07996545
H       -1.23817653      -4.54927877       1.16850270
H       -1.83475344      -6.09663952       0.62010780
H       -4.72274601      -5.78401403      -0.48382214
H       -6.61771685      -4.37924436       0.90938443
H       -5.15470845      -2.79699868       2.63970549
C       -1.28310982      -3.31598183      -2.68977153
C       -0.97075674      -3.31216586      -3.85461357
Br      -0.46570824      -3.30599577      -5.73806464
C       -0.91685179       0.91685179       0.91685179
C       -1.86118213       1.73019946       0.04032336
C       -2.85256590       2.56595793       0.85699844
N       -3.82732575       3.31340475       0.06942667
C       -4.73079240       2.49166212      -0.73541609
C       -5.55672556       1.56308152       0.07909979
C       -6.50007194       1.75002620       1.06957290
C       -6.93749724       0.46123031       1.45288458
C       -6.23620146      -0.42867380       0.67547025
O       -5.38899136       0.22997976      -0.15726991
H       -0.22694504       1.53608939       1.49536537
H       -1.45663315       0.24172994       1.58723347
H       -2.41266995       1.02646245      -0.59391046
H       -1.28313028       2.37053547      -0.63862423
H       -3.33262206       1.97445176       1.64281427
H       -3.32598661       3.95350808      -0.54273407
H       -4.18313097       1.95008604      -1.51426442
H       -5.41128768       3.16729865      -1.26730116
H       -6.82124025       2.70604344       1.46329849
H       -7.67482285       0.21004846       2.20270547
H       -6.22362716      -1.50776341       0.59613789
C       -2.13081479       3.58745712       1.57059127
C       -1.52634822       4.44296269       2.16822527
Br      -0.54897692       5.82624284       3.13454889
C        0.91685179      -0.91685179       0.91685179
C        1.64344414      -0.05027768       1.93798312
C        2.47119120      -0.87443375       2.92989732
N        3.13489097      -0.10108272       3.97418348
C        2.23525716       0.62132769       4.87310896
C        1.30996508      -0.27324896       5.61569284
C        1.50081556      -1.29812392       6.52073156
C        0.21320536      -1.76029905       6.87810771
C       -0.67992522      -0.99165483       6.17126829
O       -0.02387085      -0.09018993       5.39538214
H        1.59386204      -1.43287403       0.23166374
H        0.25062799      -1.64236841       1.39260015
H        0.88576985       0.52410516       2.48355726
H        2.27629444       0.68402872       1.42277580
H        1.89664289      -1.70846293       3.34478227
H        3.76720226       0.56290513       3.53246349
H        1.68261648       1.39994839       4.33628451
H        2.85294952       1.15034161       5.60867725
H        2.45891383      -1.66273098       6.86893737
H       -0.03521891      -2.55518547       7.56761021
H       -1.75987528      -0.96111970       6.11075722
C        3.55749372      -1.50536779       2.22600167
C        4.46727207      -2.03377504       1.63648906
Br       5.93830673      -2.88816489       0.68329704
