181
Properties=species:S:1:pos:R:3 pbc="F F F"
C        0.00000000       0.00000000       0.00000000
C        0.91911783       0.91911783      -0.91911783
C        1.93282195       1.64713157      -0.05857773
C        2.76787693       2.71875799      -0.81439263
H        2.12092381       3.20966859      -1.55108270
C        3.21138540       3.82957663       0.23524708
H        2.28224096       4.23084837       0.66387678
N        3.97115785       3.18621340       1.31372464
C        4.13164958       3.93728281       2.55042875
C        5.44684441       4.61892848       2.69495580
C        6.62777621       4.63553128       1.97596580
C        7.51484864       5.48764457       2.67776041
C        6.82805279       5.93160778       3.78183402
O        5.57464162       5.41297789       3.79996309
C        3.98061226       5.01598457      -0.38723212
C        3.15663361       5.78937543      -1.40427742
N        3.93733806       2.09283460      -1.46493901
C        3.87933716       1.99094216      -2.92709157
C        3.27626533       0.72370731      -3.42699490
C        2.48274297       0.42202279      -4.51699937
C        2.23563283      -0.97268470      -4.46476006
C        2.90464374      -1.43859930      -3.35818306
O        3.55751452      -0.42329465      -2.73795486
H        0.24284639       1.60718643      -1.43210936
H        1.36857397       0.23823513      -1.63268956
H        2.59966169       0.91671191       0.42124331
H        1.38820583       2.13402217       0.76146174
H        4.82150511       2.72512316       1.00576513
H        4.03772782       3.22531235       3.37894595
H        3.32015490       4.66279553       2.68405073
H        6.82739980       4.10010957       1.05965862
H        8.53067979       5.74456220       2.41393105
H        7.07604519       6.58353682       4.60800940
H        4.92004649       4.67954049      -0.84119563
H        4.26337938       5.71642199       0.40800152
H        2.23927630       6.19295001      -0.96562200
H        2.91618252       5.20274326      -2.29300937
H        4.78673842       2.59051616      -1.21485030
H        4.91080262       2.01342626      -3.30277559
H        3.38366259       2.86190316      -3.37111210
H        2.12606751       1.12078053      -5.25985597
H        1.64246684      -1.56733551      -5.14544796
H        3.00884736      -2.41025944      -2.89561378
C        3.91239280       6.92086610      -1.87561266
C        4.54534113       7.86848954      -2.27035592
Br       5.56876503       9.40071649      -2.90862239
C       -0.91911783      -0.91911783      -0.91911783
C       -0.16821334      -2.18372641      -1.28659151
C       -0.88789225      -3.07849071      -2.33464459
H       -1.39165169      -2.42935773      -3.06066568
C        0.22114311      -3.89860639      -3.12825167
H        0.88468978      -3.15011270      -3.58378962
N        1.00796309      -4.68271686      -2.16889284
C        2.29469559      -5.18892992      -2.62426930
C        2.28643583      -6.61836740      -3.03888553
C        1.36105450      -7.64512124      -3.00327495
C        2.00388667      -8.78581722      -3.54280226
C        3.27939156      -8.39073608      -3.86648202
O        3.45938732      -7.07987426      -3.56716947
C       -0.33784712      -4.77427720      -4.27170463
C       -1.03129334      -3.96386149      -5.35513164
N       -1.85021303      -3.97849979      -1.66639885
C       -3.26863437      -3.66257151      -1.86616501
C       -3.84048886      -2.74749073      -0.83898794
C       -4.78674468      -1.74225024      -0.89277020
C       -4.91614870      -1.23656843       0.42500893
C       -4.05515146      -1.97260670       1.20353067
O       -3.41814619      -2.90579854       0.45177001
H       -1.16855547      -0.31726191      -1.79632481
H       -1.80918317      -1.10205629      -0.32825921
H        0.04408326      -2.76266448      -0.37654907
H        0.81173537      -1.88796552      -1.68453612
H        0.46679572      -5.36302706      -1.64463181
H        2.99726076      -5.09341252      -1.78794247
H        2.70305120      -4.56980059      -3.43215032
H        0.34823204      -7.58207895      -2.63400384
H        1.59042450      -9.77508996      -3.67664548
H        4.13581382      -8.89462639      -4.29276004
H       -1.01728101      -5.54136363      -3.88213797
H        0.48975689      -5.31628274      -4.74527401
H       -0.36000687      -3.22885870      -5.80898275
H       -1.93895884      -3.46989675      -5.00307956
H       -1.69463081      -4.93872900      -1.95874508
H       -3.83173133      -4.60231981      -1.79295332
H       -3.45708562      -3.28268748      -2.87690476
H       -5.31970510      -1.41370297      -1.77329594
H       -5.55440345      -0.43423501       0.76805918
H       -3.78797990      -1.95729099       2.25106918
C       -1.45054853      -4.84045431      -6.41786872
C       -1.80167476      -5.57460079      -7.30791103
Br      -2.36941618      -6.76165357      -8.74703416
C       -0.91911783       0.91911783       0.91911783
C       -2.26520498       1.12146674       0.25185954
C       -3.18667860       2.15362977       0.96071917
H       -2.56412397       2.96834093       1.34921019
C       -4.15543643       2.78362384      -0.13334531
H       -3.50252402       3.23832441      -0.89163589
N       -4.91439533       1.70254475      -0.77329348
C       -5.55653141       2.00603507      -2.04406284
C       -7.01096832       2.30677403      -1.94692525
C       -7.95545357       2.26965914      -0.93777102
C       -9.18461125       2.66177914      -1.52165759
C       -8.91941918       2.90590319      -2.84749583
O       -7.60598750       2.69584152      -3.11417260
C       -5.07861254       3.89839947       0.40681692
C       -4.31136143       5.09684712       0.94207792
N       -3.94866469       1.50115912       2.04528787
C       -3.54086431       1.84472863       3.41177794
C       -2.49996233       0.94454588       3.98245931
C       -1.43199522       1.15693540       4.83283451
C       -0.80768947      -0.10149387       5.02151260
C       -1.54005307      -1.00548265       4.28965708
O       -2.58065733      -0.38582308       3.67734048
H       -0.37625262       1.85871362       1.04717594
H       -0.98104930       0.39346949       1.86497987
H       -2.77961266       0.15420096       0.16131666
H       -2.08185685       1.45668412      -0.77777470
H       -5.50331749       1.17452333      -0.13697767
H       -5.44559883       1.12312092      -2.68462553
H       -5.04207306       2.82227099      -2.56544435
H       -7.78226047       1.99377922       0.09181106
H      -10.14629396       2.75245348      -1.03743650
H       -9.52311983       3.21720581      -3.68875302
H       -5.75435188       3.50912374       1.17730699
H       -5.72193469       4.25614277      -0.40627761
H       -3.67231190       5.54815977       0.17737665
H       -3.71981387       4.86284854       1.82927274
H       -4.93946444       1.70323505       1.94940540
H       -4.42407014       1.74631041       4.05662392
H       -3.23459447       2.89442452       3.48765886
H       -1.13871685       2.10252220       5.26546496
H        0.06832832      -0.32530478       5.61421238
H       -1.45679826      -2.06750344       4.10490688
C       -5.23953008       6.11951050       1.34983099
C       -6.01687132       6.97599109       1.69132418
Br      -7.27376636       8.36084775       2.24348980
C        0.91911783      -0.91911783       0.91911783
C        1.21888341      -0.20005914       2.21958871
C        2.26079456      -0.91488129       3.12535170
H        3.02457531      -1.37200582       2.48509397
C        2.98865826       0.19110918       4.00816587
H        3.44573751       0.89444723       3.29792226
N        1.97770151       0.91868082       4.78462592
C        2.37200581       2.20171964       5.34821746
C        2.73930987       2.15840290       6.78991012
C        2.70143856       1.19788234       7.78378546
C        3.18083410       1.81888749       8.96278621
C        3.47368752       3.11709849       8.62123751
O        3.21179282       3.33171666       7.30758026
C        4.12101285      -0.35940889       4.90340720
C        5.25358192      -0.98872457       4.10797998
N        1.59643810      -1.92883583       3.96983774
C        1.85475551      -3.32830350       3.61431188
C        0.87840072      -3.90218042       2.64638640
C        0.99752629      -4.81132519       1.61291365
C       -0.29768611      -4.96678861       1.05860570
C       -1.12895341      -4.15752217       1.79565874
O       -0.43052348      -3.52826549       2.77443271
H        1.82368471      -1.11883418       0.33962329
H        0.35323904      -1.83389878       1.05236085
H        0.28353991      -0.03774321       2.77384717
H        1.59272041       0.80199045       1.97003630
H        1.45005202       0.33764330       5.42845443
H        1.51581571       2.87917790       5.24745642
H        3.18546717       2.65735962       4.77079216
H        2.36919300       0.17617450       7.67483224
H        3.29600805       1.37657465       9.94187754
H        3.85367387       3.96943114       9.16732990
H        3.72975935      -1.07707518       5.63394808
H        4.54796326       0.46439759       5.48823418
H        5.70826754      -0.27817101       3.41140976
H        4.94915785      -1.89013406       3.57264324
H        1.85149301      -1.79652873       4.94408314
H        1.76984204      -3.92522065       4.53194178
H        2.88330739      -3.47026763       3.26310282
H        1.90606400      -5.30345413       1.29718588
H       -0.59213724      -5.58828009       0.22443643
H       -2.18391720      -3.92466543       1.75345347
C        6.30051688      -1.40235742       5.00599726
C        7.17732492      -1.74877493       5.75808673
Br       8.59504935      -2.30890275       6.97415180
