194
Properties=species:S:1:pos:R:3 pbc="F F F"
C        1.82902185       1.82902185      -1.82902185
C        2.84272598       2.55703560      -0.96848176
C        3.67778095       3.62866201      -1.72429665
H        3.03082783       4.11957261      -2.46098673
C        4.12128942       4.73948065      -0.67465694
H        3.19214498       5.14075239      -0.24602724
N        4.88106187       4.09611742       0.40382062
C        5.04155360       4.84718683       1.64052472
C        6.35674843       5.52883251       1.78505177
C        7.53768023       5.54543530       1.06606178
C        8.42475267       6.39754860       1.76785638
C        7.73795681       6.84151180       2.87193000
O        6.48454564       6.32288191       2.89005907
C        4.89051628       5.92588859      -1.29713614
C        4.06653764       6.69927946      -2.31418144
Br       5.09017955       8.23183280      -2.95258388
N        4.84724208       3.00273863      -2.37484303
C        4.78924119       2.90084618      -3.83699559
C        4.18616935       1.63361133      -4.33689892
C        3.39264699       1.33192681      -5.42690339
C        3.14553686      -0.06278067      -5.37466409
C        3.81454777      -0.52869528      -4.26808708
O        4.46741854       0.48660937      -3.64785888
H        1.15275041       2.51709045      -2.34201339
H        2.27847800       1.14813915      -2.54259358
H        3.50956571       1.82661593      -0.48866071
H        2.29810986       3.04392619      -0.14844228
H        5.73140914       3.63502719       0.09586110
H        4.94763185       4.13521638       2.46904192
H        4.23005892       5.57269956       1.77414670
H        7.73730382       5.01001360       0.14975460
H        9.44058382       6.65446623       1.50402703
H        7.98594922       7.49344085       3.69810538
H        5.82995052       5.58944451      -1.75109966
H        5.17328341       6.62632601      -0.50190250
H        3.14918033       7.10285403      -1.87552603
H        3.82608654       6.11264729      -3.20291339
H        5.69664245       3.50042019      -2.12475432
H        5.82070665       2.92333028      -4.21267961
H        4.29356661       3.77180718      -4.28101612
H        3.03597153       2.03068455      -6.16976000
H        2.55237086      -0.65743149      -6.05535198
H        3.91875138      -1.50035541      -3.80551781
C       -1.82902185      -1.82902185      -1.82902185
C       -0.97977324      -2.49458737      -2.89388271
C       -1.78884207      -3.27168977      -3.97020777
H       -2.71394483      -2.72057299      -4.17686936
C       -0.93814475      -3.28224590      -5.31503637
H       -0.77269024      -2.22801176      -5.57822262
N        0.36760315      -3.89581460      -5.04514723
C        1.42533400      -3.65706191      -6.01648780
C        1.64831200      -4.77258519      -6.97625598
C        1.15872516      -6.05791560      -7.11786332
C        1.80696222      -6.61382571      -8.24758139
C        2.65501519      -5.64185174      -8.72070207
O        2.56459297      -4.52287258      -7.95908888
C       -1.65480352      -3.94778815      -6.51094933
C       -2.94023930      -3.23682977      -6.90292947
Br      -3.70144416      -4.09021708      -8.48293499
N       -2.07822877      -4.64318119      -3.50341378
C       -3.47272463      -4.91546810      -3.13889023
C       -3.78932767      -4.66198625      -1.70536569
C       -4.91143970      -4.18272900      -1.05730849
C       -4.60814134      -4.17651832       0.32723940
C       -3.32881739      -4.66599081       0.44086864
O       -2.83437578      -4.98562537      -0.78188565
H       -2.58595615      -1.16795068      -2.25794742
H       -2.29254021      -2.53107401      -1.14559652
H       -0.24738723      -3.16099309      -2.41646204
H       -0.38924376      -1.71215951      -3.38907507
H        0.31718356      -4.85906402      -4.72869477
H        2.35684113      -3.51468329      -5.45596414
H        1.25873796      -2.72220128      -6.56514846
H        0.42593806      -6.53746246      -6.48603842
H        1.67535366      -7.60199822      -8.66437846
H        3.35422952      -5.59161528      -9.54389894
H       -1.85659027      -5.00602249      -6.30788192
H       -0.98959303      -3.92912493      -7.38279396
H       -2.76358315      -2.19140201      -7.17257523
H       -3.71215757      -3.29624246      -6.13324719
H       -1.79568322      -5.32036723      -4.20576651
H       -3.65941760      -5.98317829      -3.31412065
H       -4.17075310      -4.38162328      -3.79401353
H       -5.83611656      -3.87591916      -1.52438036
H       -5.23962598      -3.85398903       1.14332365
H       -2.65964514      -4.83696057       1.27269193
C       -1.82902185       1.82902185       1.82902185
C       -2.77800594       0.95987631       2.63036108
C       -3.85515416       1.74788093       3.42770453
H       -4.16869295       2.61228197       2.83041224
C       -5.12826238       0.80854823       3.59861642
H       -5.45125484       0.54640782       2.58126196
N       -4.71887950      -0.42538506       4.27986423
C       -5.62232957      -1.56330235       4.18918849
C       -6.48238971      -1.76834599       5.38648545
C       -6.57026253      -1.19469363       6.64148485
C       -7.60651658      -1.87665243       7.32458073
C       -8.08132493      -2.82627436       6.45248804
O       -7.40866059      -2.76718493       5.27589282
C       -6.32521801       1.48790001       4.30042299
C       -6.86132361       2.68578773       3.53288720
Br      -8.43057446       3.39673658       4.44728519
N       -3.31678045       2.17134653       4.73669676
C       -3.03989907       3.60439584       4.88278805
C       -1.65541324       4.00039914       4.50086723
C       -1.12851829       5.12585549       3.89710342
C        0.27107509       4.92037725       3.80811811
C        0.51437135       3.69249612       4.37581481
O       -0.64247918       3.13927915       4.82012847
H       -2.35870074       2.50236152       1.15079199
H       -1.13498641       2.39055022       2.44367410
H       -2.20155883       0.31474272       3.30854081
H       -3.28087450       0.27911473       1.93048911
H       -4.34061563      -0.28078675       5.21074635
H       -5.00474248      -2.46144826       4.07051208
H       -6.24589395      -1.50611295       3.28883078
H       -5.96331737      -0.38563116       7.01987661
H       -7.96199335      -1.70062652       8.32965618
H       -8.85117442      -3.58306146       6.51317173
H       -6.06447681       1.78228324       5.32373463
H       -7.14380779       0.76391156       4.39379258
H       -7.18928524       2.41271506       2.52556008
H       -6.14952623       3.51184752       3.48027347
H       -3.94691902       1.89210387       5.48279407
H       -3.15366569       3.85805883       5.94499202
H       -3.78127423       4.21289961       4.35221608
H       -1.68400159       5.98999649       3.56241800
H        1.01290495       5.58129819       3.38189812
H        1.40400682       3.09778189       4.53013871
C        1.82902185      -1.82902185       1.82902185
C        1.67784428      -3.27857937       1.41181968
C        2.38077459      -4.29641306       2.35355197
H        2.28482913      -3.94039002       3.38616802
C        1.59798589      -5.67866510       2.25877604
H        0.56192117      -5.46207089       2.55493256
N        1.58952225      -6.12369019       0.86014624
C        0.61380306      -7.14022617       0.49418648
C        1.15875195      -8.52318755       0.41858967
C        2.41718056      -9.08849225       0.51138095
C        2.24766872     -10.48202872       0.32474744
C        0.90344302     -10.68171593       0.12237967
O        0.23564037      -9.50225619       0.17947193
C        2.12950359      -6.77254954       3.21148788
C        2.01088767      -6.39077749       4.67833339
Br       2.60590241      -7.87919808       5.78949573
N        3.79975966      -4.45212407       1.97294001
C        4.77842615      -3.85844308       2.89021373
C        5.13827918      -2.44875298       2.56964745
C        5.44717027      -1.35254171       3.35176521
C        5.71357230      -0.28194731       2.46190067
C        5.56708171      -0.79260583       1.19425203
O        5.24321567      -2.10936180       1.24930933
H        1.49758644      -1.65816292       2.85610489
H        2.83279291      -1.44332182       1.69309601
H        2.03946260      -3.40404836       0.38133140
H        0.60425161      -3.50756272       1.37866400
H        2.51231186      -6.28798798       0.47027537
H        0.23199021      -6.88263093      -0.50081483
H       -0.25422666      -7.11871983       1.16411860
H        3.34364039      -8.56339754       0.69052489
H        3.01085644     -11.24687976       0.33328682
H        0.29461225     -11.55472184      -0.06804940
H        3.16779505      -7.03046755       2.97223209
H        1.54829308      -7.69068532       3.06253351
H        0.97510588      -6.18697177       4.96548275
H        2.64499793      -5.54515124       4.95149805
H        4.02717350      -5.43550791       1.85913555
H        5.70528749      -4.44156939       2.80985966
H        4.45903160      -3.95287956       3.93447876
H        5.47796144      -1.32700636       4.43144829
H        5.97734594       0.73677706       2.70972247
H        5.64881593      -0.37459602       0.20050183
C       -0.00445707       0.01189536      -1.78238275
H       -0.66409135       0.67374010      -2.43557963
H        0.65740317      -0.63156657      -2.45157240
C       -0.90989263      -0.90692880      -0.91072765
C        0.90977584       0.90977584      -0.90977584
C       -0.00465871       1.77757030       0.00794375
H       -0.66225468       2.44313916      -0.64384735
H        0.64322798       2.43503045       0.67728295
C       -1.78241447       0.00034974      -0.00472694
H       -2.45427497      -0.65498947       0.64260836
H       -2.43311707       0.67328779      -0.65473579
C       -0.91132561       0.90220522       0.91563759
C       -0.01476271      -0.02253852       1.78660255
H       -0.67934791      -0.69751639       2.42135241
H        0.63392994       0.61504881       2.47327442
C        0.01484550      -1.77751727      -0.01636693
H        0.67870853      -2.42144646      -0.68295456
H       -0.62264859      -2.45592969       0.64226336
C        1.78714474       0.01002794       0.00389507
H        2.44202412       0.67113390       0.66197326
H        2.45385902      -0.65136977      -0.64189061
C        0.91606151      -0.90478549       0.90901405
