130
Properties=species:S:1:pos:R:3 pbc="F F F"
C        1.82599416       1.82599416      -1.82599416
C        2.36194918       2.99084243      -1.01018932
C        3.22912180       3.91618813      -1.86496075
N        4.40897072       3.32389226      -2.48073211
C        5.33694255       2.66461081      -1.56393531
C        6.50978622       2.09391976      -2.32631525
C        6.45570218       0.78917570      -2.83944567
C        7.53480126       0.26087006      -3.54892522
C        8.67392721       1.03419413      -3.76291171
C        8.73450067       2.33747147      -3.27218161
C        7.65675731       2.86690744      -2.55942028
H        1.19491522       2.16313256      -2.65300520
H        2.61656314       1.17676867      -2.20974269
H        2.91689685       2.62561486      -0.13624015
H        1.51752868       3.56139186      -0.60017495
H        2.60728166       4.32738161      -2.66841960
H        4.91535298       4.05738053      -2.97603295
H        4.84860952       1.84371249      -1.02674163
H        5.71932096       3.35409598      -0.80224284
H        5.56730092       0.17908045      -2.68776140
H        7.48478721      -0.75277700      -3.93644810
H        9.51408619       0.62201698      -4.31658730
H        9.62049233       2.94172464      -3.44555283
H        7.71735889       3.88577129      -2.18484849
C        3.59564739       5.08288455      -1.10464605
C        3.90261257       6.05999281      -0.46788248
Br       4.39894931       7.63989422       0.56171034
C       -1.82599416      -1.82599416      -1.82599416
C       -2.36833854      -1.00817675      -2.98646565
C       -3.28134342      -1.84851155      -3.88041571
N       -2.68668877      -3.02323075      -4.50367558
C       -1.48726300      -2.77653928      -5.30168639
C       -0.97229303      -4.07056075      -5.88716747
C       -0.05360111      -4.85603252      -5.17468992
C        0.41980088      -6.05453172      -5.70986570
C       -0.02821771      -6.48620894      -6.95660641
C       -0.95284014      -5.72331353      -7.66800008
C       -1.42553831      -4.52218128      -7.13536544
H       -2.62628413      -2.20214075      -1.18262809
H       -1.19552505      -2.65735304      -2.15019641
H       -1.54560682      -0.56818045      -3.56496459
H       -2.93435217      -0.15389215      -2.59085118
H       -4.13431756      -2.18742118      -3.28134413
H       -3.38699359      -3.45744826      -5.10432462
H       -0.68881449      -2.33702834      -4.69322080
H       -1.67837440      -2.07509368      -6.12219170
H        0.29579952      -4.53456937      -4.19537293
H        1.13579473      -6.65183044      -5.15242260
H        0.34058578      -7.42069355      -7.37258270
H       -1.30651142      -6.06435944      -8.63689894
H       -2.14837776      -3.93901231      -7.70058859
C       -3.89420627      -1.01060350      -4.87836823
C       -4.40747890      -0.30885550      -5.71415346
Br      -5.23739734       0.82581165      -7.06554750
C       -1.82599416       1.82599416       1.82599416
C       -2.30794182       1.02848044       3.02655867
C       -3.21927683       1.86829503       3.92269882
N       -2.64274013       3.07891614       4.49193883
C       -1.41296080       2.89290291       5.25962496
C       -0.92084137       4.21916978       5.79001009
C       -0.04850329       5.00942511       5.02639515
C        0.40352637       6.23746479       5.51065812
C       -0.02011022       6.69377202       6.75715081
C       -0.89910151       5.92586153       7.51919071
C       -1.35027089       4.69529059       7.03752356
H       -2.65637208       2.15804142       1.19663948
H       -1.21203494       2.68542596       2.10561361
H       -1.45511439       0.63131420       3.59232327
H       -2.85893341       0.14587023       2.67429185
H       -4.09981855       2.16292970       3.34033463
H       -3.33782397       3.51030785       5.10063465
H       -0.61989432       2.45891585       4.64025347
H       -1.55774926       2.21167701       6.10623351
H        0.28120455       4.66852348       4.04682384
H        1.08378727       6.83843862       4.91380697
H        0.33199021       7.65124004       7.13344064
H       -1.23399102       6.28587911       8.48789967
H       -2.03757394       4.10846858       7.64193614
C       -3.77591740       1.04359250       4.96366809
C       -4.24210388       0.35290413       5.83547985
Br      -4.99588799      -0.76388054       7.24512573
C        1.82599416      -1.82599416       1.82599416
C        2.82132779      -2.58103669       0.96061646
C        3.70708857      -3.49937044       1.80381167
N        4.52056791      -2.86233925       2.83068793
C        5.40468078      -1.79556652       2.36524137
C        6.18640140      -1.22049927       3.52312057
C        5.66889566      -0.14895692       4.26647097
C        6.38554257       0.38097047       5.34002444
C        7.62067187      -0.16129993       5.68906125
C        8.13910802      -1.23623354       4.96881219
C        7.42473921      -1.76603323       3.89231260
H        1.15104222      -2.50298126       2.35702950
H        2.30797984      -1.15454058       2.54055408
H        3.42713036      -1.88098615       0.37063535
H        2.27282704      -3.18292139       0.22334706
H        3.06611301      -4.23739565       2.29957421
H        5.09159488      -3.57869299       3.27847860
H        4.83549790      -0.98190639       1.90165935
H        6.11409781      -2.15218420       1.60937777
H        4.70048006       0.27633678       4.00999949
H        5.97835652       1.21479899       5.90490078
H        8.17812680       0.25173236       6.52629604
H        9.09905860      -1.66250764       5.24620357
H        7.84053803      -2.60606017       3.34138047
C        4.53223860      -4.30732425       0.94361514
C        5.22330175      -4.98398556       0.22320055
Br       6.34069241      -6.07808968      -0.94164891
C       -0.00445707       0.01189536      -1.78238275
H       -0.66409135       0.67374010      -2.43557963
H        0.65740317      -0.63156657      -2.45157240
C       -0.90989263      -0.90692880      -0.91072765
C        0.90977584       0.90977584      -0.90977584
C       -0.00465871       1.77757030       0.00794375
H       -0.66225468       2.44313916      -0.64384735
H        0.64322798       2.43503045       0.67728295
C       -1.78241447       0.00034974      -0.00472694
H       -2.45427497      -0.65498947       0.64260836
H       -2.43311707       0.67328779      -0.65473579
C       -0.91132561       0.90220522       0.91563759
C       -0.01476271      -0.02253852       1.78660255
H       -0.67934791      -0.69751639       2.42135241
H        0.63392994       0.61504881       2.47327442
C        0.01484550      -1.77751727      -0.01636693
H        0.67870853      -2.42144646      -0.68295456
H       -0.62264859      -2.45592969       0.64226336
C        1.78714474       0.01002794       0.00389507
H        2.44202412       0.67113390       0.66197326
H        2.45385902      -0.65136977      -0.64189061
C        0.91606151      -0.90478549       0.90901405
