110
Properties=species:S:1:pos:R:3 pbc="F F F"
C        1.82800746       1.82800746      -1.82800746
C        3.02157658       1.01956455      -2.31494030
C        4.03861299       1.80893466      -3.14970684
Br       3.22717575       2.31053339      -4.86446543
N        4.56864800       3.03045727      -2.57098973
C        5.37890453       2.79760835      -1.38008691
C        5.92614915       4.09918686      -0.87132969
C        6.80700015       4.96178671      -1.49665862
C        7.11650915       6.09844946      -0.69659174
C        6.46183382       6.06905051       0.51386921
S        5.47631704       4.68155604       0.67738403
H        2.11839238       2.67459472      -1.20272317
H        1.18694970       2.17158766      -2.64125431
H        2.66169261       0.16232643      -2.90149672
H        3.54026911       0.58168394      -1.45157694
H        4.86024844       1.14584231      -3.44365702
H        3.82233251       3.68975905      -2.36311691
H        6.22295533       2.13992217      -1.62209036
H        4.79129170       2.30380160      -0.59843809
H        7.20623099       4.78045152      -2.48817094
H        7.78464341       6.89673434      -0.99430915
H        6.51203105       6.79710028       1.31186965
C       -1.82800746      -1.82800746      -1.82800746
C       -1.06783419      -3.09431035      -2.19393690
C       -1.80921690      -4.03903827      -3.14899931
Br      -3.36154515      -4.81086395      -2.22976548
N       -2.30419821      -3.47430448      -4.39159230
C       -1.23962104      -3.03129415      -5.28568461
C       -1.82918293      -2.50565608      -6.56182669
C       -2.56152248      -3.19022791      -7.51369509
C       -2.94281381      -2.36152625      -8.60721029
C       -2.49089235      -1.07018448      -8.45593830
S       -1.61887144      -0.86139487      -7.00022276
H       -2.07768838      -1.21896046      -2.69906143
H       -2.72860212      -2.02627164      -1.24491791
H       -0.81133083      -3.63962707      -1.27455786
H       -0.10497577      -2.82195450      -2.64659972
H       -1.18001675      -4.91174327      -3.35798775
H       -2.95181209      -2.71037740      -4.21301898
H       -0.58036727      -3.87298287      -5.53161772
H       -0.62436171      -2.26067383      -4.80849586
H       -2.81250151      -4.24087957      -7.42147237
H       -3.51948568      -2.69572904      -9.46047217
H       -2.63197625      -0.23592831      -9.12935712
C       -1.82800746       1.82800746       1.82800746
C       -1.13497012       3.16292630       2.05818502
C       -1.87659499       4.12148394       2.99917554
Br      -3.53451780       4.72632228       2.14133449
N       -2.25025749       3.61305266       4.30678483
C       -1.10220765       3.30236330       5.15202885
C       -1.57056054       2.82906608       6.49703908
C       -2.28544448       3.52899337       7.45100764
C       -2.53733432       2.75482497       8.61939106
C       -2.00812040       1.48797202       8.52092271
S       -1.21949733       1.23595803       7.02503370
H       -1.97837573       1.26565742       2.75167713
H       -2.77586493       1.92707365       1.29685310
H       -0.97653136       3.65893775       1.09004665
H       -0.12842996       2.98511977       2.45998027
H       -1.29692065       5.04529049       3.10753663
H       -2.85380427       2.79844796       4.22295624
H       -0.48809152       4.19977907       5.29709727
H       -0.46732599       2.54196072       4.68424468
H       -2.61371923       4.55239881       7.30873541
H       -3.07944032       3.10918917       9.48705741
H       -2.04759181       0.69479259       9.25487729
C        1.82800746      -1.82800746       1.82800746
C        3.20262106      -1.18978854       1.96367184
C        4.22128766      -2.01442380       2.76154302
Br       3.67482791      -2.08240539       4.64494127
N        4.43713500      -3.38831416       2.34464582
C        5.03794919      -3.49904959       1.01960101
C        5.27100919      -4.94288091       0.68277560
C        6.10717611      -5.84591161       1.31235776
C        6.08116802      -7.13100989       0.69937244
C        5.22550429      -7.16964779      -0.37813695
S        4.45564341      -5.66587881      -0.64103317
H        1.86123925      -2.80087349       1.33359754
H        1.30379085      -1.91511217       2.78088865
H        3.09642872      -0.19970710       2.42937994
H        3.61353169      -0.99626604       0.96373226
H        5.17651344      -1.47813939       2.79509494
H        3.57157870      -3.92149685       2.38213293
H        6.00441226      -2.98028768       1.00026793
H        4.39959903      -3.03272217       0.26121020
H        6.70720555      -5.58950464       2.17814327
H        6.66008107      -7.98321758       1.03238825
H        5.01211120      -8.00980339      -1.02465290
C       -0.00445707       0.01189536      -1.78238275
H       -0.66409135       0.67374010      -2.43557963
H        0.65740317      -0.63156657      -2.45157240
C       -0.90989263      -0.90692880      -0.91072765
C        0.90977584       0.90977584      -0.90977584
C       -0.00465871       1.77757030       0.00794375
H       -0.66225468       2.44313916      -0.64384735
H        0.64322798       2.43503045       0.67728295
C       -1.78241447       0.00034974      -0.00472694
H       -2.45427497      -0.65498947       0.64260836
H       -2.43311707       0.67328779      -0.65473579
C       -0.91132561       0.90220522       0.91563759
C       -0.01476271      -0.02253852       1.78660255
H       -0.67934791      -0.69751639       2.42135241
H        0.63392994       0.61504881       2.47327442
C        0.01484550      -1.77751727      -0.01636693
H        0.67870853      -2.42144646      -0.68295456
H       -0.62264859      -2.45592969       0.64226336
C        1.78714474       0.01002794       0.00389507
H        2.44202412       0.67113390       0.66197326
H        2.45385902      -0.65136977      -0.64189061
C        0.91606151      -0.90478549       0.90901405
