118
Properties=species:S:1:pos:R:3 pbc="F F F"
C        1.82800746       1.82800746      -1.82800746
C        3.02157658       1.01956455      -2.31494030
C        4.03861299       1.80893466      -3.14970684
N        4.56864800       3.03045727      -2.57098973
C        5.37890453       2.79760835      -1.38008691
C        5.92614915       4.09918686      -0.87132969
C        6.80700015       4.96178671      -1.49665862
C        7.11650915       6.09844946      -0.69659174
C        6.46183382       6.06905051       0.51386921
S        5.47631704       4.68155604       0.67738403
H        2.11839238       2.67459472      -1.20272317
H        1.18694970       2.17158766      -2.64125431
H        2.66169261       0.16232643      -2.90149672
H        3.54026911       0.58168394      -1.45157694
H        4.86024844       1.14584231      -3.44365702
H        3.82233251       3.68975905      -2.36311691
H        6.22295533       2.13992217      -1.62209036
H        4.79129170       2.30380160      -0.59843809
H        7.20623099       4.78045152      -2.48817094
H        7.78464341       6.89673434      -0.99430915
H        6.51203105       6.79710028       1.31186965
C        3.44313888       2.17703344      -4.40808431
C        2.94442932       2.48531617      -5.46197545
Br       2.13805813       2.98378327      -7.16602828
C       -1.82800746      -1.82800746      -1.82800746
C       -1.64731669      -3.28403298      -1.42473176
C       -2.41734542      -4.29298297      -2.28692609
N       -2.21767754      -4.22883355      -3.72358390
C       -0.85812213      -4.56802624      -4.13045143
C       -0.74601745      -4.52422516      -5.62642309
C       -1.39259334      -5.31475886      -6.55809328
C       -1.02216230      -4.99416820      -7.89521985
C       -0.10542529      -3.96850639      -7.94308344
S        0.29791336      -3.39445455      -6.38394787
H       -1.51022963      -1.63158389      -2.85389676
H       -2.84815491      -1.46981518      -1.68182158
H       -1.94489377      -3.40696480      -0.37365718
H       -0.57957037      -3.53938545      -1.45457418
H       -2.21657251      -5.30790920      -1.92526605
H       -2.47390165      -3.31399563      -4.08731120
H       -0.60723177      -5.58215400      -3.79558210
H       -0.13268172      -3.88356987      -3.67727979
H       -2.10301839      -6.08682505      -6.28501002
H       -1.40897139      -5.49026887      -8.77644664
H        0.34719346      -3.52507883      -8.81937631
C       -3.83093783      -4.13461848      -2.06270032
C       -5.01482147      -4.00198822      -1.87491124
Br      -6.92906119      -3.78753631      -1.57127219
C       -1.82800746       1.82800746       1.82800746
C       -1.52730503       1.53769440       3.29108201
C       -2.40401736       2.29947131       4.29376581
N       -3.84312524       2.19360879       4.13336095
C       -4.34915925       0.84446452       4.36297604
C       -5.84350515       0.82834238       4.22481817
C       -6.78308459       1.48421893       4.99814196
C       -8.11707420       1.21703603       4.57744013
C       -8.15464298       0.36664611       3.49572604
S       -6.58911435      -0.09856209       2.98993680
H       -2.85653493       1.58666830       1.55250705
H       -1.60038460       2.85630263       1.54310445
H       -0.47029720       1.76164157       3.49357698
H       -1.63540095       0.46075905       3.47736998
H       -2.11852916       2.01755071       5.31366790
H       -4.13365090       2.52504929       3.21650829
H       -4.09324723       0.51432190       5.37739874
H       -3.89754145       0.13355357       3.66243637
H       -6.51742539       2.12988845       5.82753961
H       -9.00329050       1.62818889       5.04420752
H       -9.02665433      -0.00388740       2.97449476
C       -2.08803853       3.70322836       4.23698974
C       -1.82340627       4.87887489       4.18943978
Br      -1.39551827       6.77979590       4.11255552
C        1.82800746      -1.82800746       1.82800746
C        1.27442723      -3.24531842       1.83633579
C        2.02052262      -4.22436431       2.75236755
N        2.19484327      -3.83506939       4.14018233
C        0.93697363      -3.74546873       4.87415745
C        1.20502276      -3.38538647       6.30625648
C        1.89334407      -4.11323978       7.25886163
C        1.93099868      -3.45793865       8.52261302
C        1.27145902      -2.25006801       8.49548809
S        0.61854847      -1.90943636       6.95250423
H        1.81537009      -1.36408620       2.81625399
H        2.83095417      -1.76580209       1.40303541
H        1.27601230      -3.63938821       0.81011525
H        0.21780952      -3.22082677       2.13489370
H        1.54386639      -5.20967049       2.69621090
H        2.70520509      -2.95800074       4.21200264
H        0.41942158      -4.71254212       4.85300416
H        0.27017467      -3.00598747       4.41736925
H        2.35114493      -5.07356286       7.05014566
H        2.41751211      -3.85237134       9.40580345
H        1.14219237      -1.54763425       9.30743506
C        3.33922676      -4.46341877       2.22561110
C        4.44364148      -4.66362688       1.78445258
Br       6.22938667      -4.98734646       1.07113655
C       -0.00445707       0.01189536      -1.78238275
H       -0.66409135       0.67374010      -2.43557963
H        0.65740317      -0.63156657      -2.45157240
C       -0.90989263      -0.90692880      -0.91072765
C        0.90977584       0.90977584      -0.90977584
C       -0.00465871       1.77757030       0.00794375
H       -0.66225468       2.44313916      -0.64384735
H        0.64322798       2.43503045       0.67728295
C       -1.78241447       0.00034974      -0.00472694
H       -2.45427497      -0.65498947       0.64260836
H       -2.43311707       0.67328779      -0.65473579
C       -0.91132561       0.90220522       0.91563759
C       -0.01476271      -0.02253852       1.78660255
H       -0.67934791      -0.69751639       2.42135241
H        0.63392994       0.61504881       2.47327442
C        0.01484550      -1.77751727      -0.01636693
H        0.67870853      -2.42144646      -0.68295456
H       -0.62264859      -2.45592969       0.64226336
C        1.78714474       0.01002794       0.00389507
H        2.44202412       0.67113390       0.66197326
H        2.45385902      -0.65136977      -0.64189061
C        0.91606151      -0.90478549       0.90901405
