58
Properties=species:S:1:pos:R:3 pbc="F F F"
C        1.79906293       1.79906293      -1.79906293
C        1.94513617       1.42111149      -3.15013152
C        2.49594090       0.57581611      -3.99516448
C        1.11051046       2.54787789      -2.99666153
Br       1.82811888       4.23474522      -3.50892366
H        2.65721366       2.25419896      -1.32197849
H        3.13553677      -0.22701507      -3.64490051
H        2.32370109       0.66147918      -5.06258481
H        0.05199725       2.40090414      -3.16665359
C       -1.79906293      -1.79906293      -1.79906293
C       -1.85511347      -1.48763340      -3.17363232
C       -2.31545852      -0.66209850      -4.08936447
C       -1.09150844      -2.64574094      -2.91780050
Br      -1.87197462      -4.31883129      -3.38098186
H       -2.70384884      -2.18321566      -1.34632661
H       -2.92787061       0.19018299      -3.81573460
H       -2.09364349      -0.81398643      -5.14013516
H       -0.01928706      -2.56257666      -3.03769127
C       -1.79906293       1.79906293       1.79906293
C       -2.64675494       2.72034812       1.14927613
C       -2.72465110       3.85506582       0.48720457
C       -3.35561634       1.62140007       1.67803347
Br      -4.40068377       1.93307400       3.23803000
H       -1.38004816       2.10431865       2.74902429
H       -1.83645243       4.44066727       0.27630251
H       -3.67909543       4.23232482       0.13634483
H       -3.74687879       0.90331794       0.96935826
C        1.79906293      -1.79906293       1.79906293
C        2.55574606      -2.80229463       1.15833849
C        2.53266813      -3.97424264       0.56001073
C        3.35336026      -1.71901125       1.58267837
Br       4.46858230      -2.00477085       3.09843461
H        1.41980704      -2.02687318       2.78671089
H        1.60292292      -4.51796144       0.43253786
H        3.44297945      -4.42498246       0.17980317
H        3.74162187      -1.06484101       0.81309210
C       -0.00445707       0.01189536      -1.78238275
H       -0.66409135       0.67374010      -2.43557963
H        0.65740317      -0.63156657      -2.45157240
C       -0.90989263      -0.90692880      -0.91072765
C        0.90977584       0.90977584      -0.90977584
C       -0.00465871       1.77757030       0.00794375
H       -0.66225468       2.44313916      -0.64384735
H        0.64322798       2.43503045       0.67728295
C       -1.78241447       0.00034974      -0.00472694
H       -2.45427497      -0.65498947       0.64260836
H       -2.43311707       0.67328779      -0.65473579
C       -0.91132561       0.90220522       0.91563759
C       -0.01476271      -0.02253852       1.78660255
H       -0.67934791      -0.69751639       2.42135241
H        0.63392994       0.61504881       2.47327442
C        0.01484550      -1.77751727      -0.01636693
H        0.67870853      -2.42144646      -0.68295456
H       -0.62264859      -2.45592969       0.64226336
C        1.78714474       0.01002794       0.00389507
H        2.44202412       0.67113390       0.66197326
H        2.45385902      -0.65136977      -0.64189061
C        0.91606151      -0.90478549       0.90901405
