90
Properties=species:S:1:pos:R:3 pbc="F F F"
C        1.79831647       1.79831647      -1.79831647
H        2.54364498       2.39928841      -1.29384177
C        2.12614445       1.31687448      -3.07941855
C        2.84383507       0.46163458      -3.77542477
C        1.16457047       2.35358017      -3.14208491
H        0.15662912       2.02154829      -3.37698460
C        1.56508510       3.71666466      -3.69627463
H        2.29707426       4.27065678      -3.11479890
C        1.66754796       3.89679292      -5.09707184
C        2.36207602       3.61467807      -6.17715420
C        0.55417054       4.57539810      -4.56574622
H       -0.42277733       4.16259505      -4.77982762
Br       0.66823090       6.46921406      -4.42825710
H        3.51786770      -0.23165876      -3.28498093
H        2.77014594       0.42444396      -4.85654373
H        3.25099448       2.99574893      -6.12135838
H        2.06904145       4.00110419      -7.14706656
C       -1.79831647      -1.79831647      -1.79831647
H       -2.39539189      -2.54708055      -1.29430272
C       -2.34628225      -1.21851146      -2.95764377
C       -3.24427323      -0.39037134      -3.44624985
C       -1.28728578      -2.10472653      -3.26822323
H       -0.36477987      -1.61740852      -3.57297361
C       -1.59600736      -3.43487719      -3.94713983
H       -2.17525291      -4.14460030      -3.36267672
C       -1.86089892      -3.46260391      -5.33790989
C       -2.72007551      -3.15085071      -6.28298208
C       -0.61572144      -4.04543343      -5.03415999
H        0.26961909      -3.48512376      -5.30414067
Br      -0.48931078      -5.94073576      -5.13565552
H       -3.92373403       0.14595889      -2.79341473
H       -3.31885090      -0.21813567      -4.51414707
H       -3.65980985      -2.66548929      -6.04280265
H       -2.51471826      -3.37959392      -7.32290001
C       -1.79831647       1.79831647       1.79831647
H       -1.42731736       2.01868217       2.79077563
C       -2.56012994       2.79762832       1.16467921
C       -2.54533408       3.96924384       0.56631651
C       -3.36709256       1.71196982       1.58117317
H       -3.71099931       1.06910379       0.77505890
C       -4.33390539       1.89845761       2.74566138
H       -3.88076728       2.08649444       3.71526822
C       -5.56321468       2.56758449       2.53061355
C       -6.13841309       3.72514853       2.29034667
C       -5.75292442       1.19015402       2.75223642
H       -6.03351229       0.58770747       1.89842558
Br      -6.46366654       0.66523468       4.43680083
H       -1.61943715       4.51764697       0.43410575
H       -3.45912760       4.40918247       0.18282357
H       -5.54835806       4.62966195       2.19008177
H       -7.21574330       3.80527215       2.19619675
C        1.79831647      -1.79831647       1.79831647
H        1.45776693      -1.96748699       2.81152124
C        2.49784116      -2.84882939       1.17576693
C        2.41684724      -4.04031483       0.62373234
C        3.35972867      -1.78027655       1.52023033
H        3.69597497      -1.18128372       0.67790331
C        4.36294221      -1.96057047       2.65451170
H        3.94068775      -2.09515184       3.64669034
C        5.55754770      -2.68383612       2.42002890
C        6.07996358      -3.87069156       2.20325315
C        5.80636027      -1.30744989       2.58150470
H        6.07605548      -0.74815242       1.69543744
Br       6.60008618      -0.74831725       4.21729863
H        1.46693911      -4.55731370       0.54693707
H        3.29838900      -4.52883805       0.22390659
H        5.45349398      -4.75499570       2.15961211
H        7.14919570      -3.99549572       2.07252077
C       -0.00445707       0.01189536      -1.78238275
H       -0.66409135       0.67374010      -2.43557963
H        0.65740317      -0.63156657      -2.45157240
C       -0.90989263      -0.90692880      -0.91072765
C        0.90977584       0.90977584      -0.90977584
C       -0.00465871       1.77757030       0.00794375
H       -0.66225468       2.44313916      -0.64384735
H        0.64322798       2.43503045       0.67728295
C       -1.78241447       0.00034974      -0.00472694
H       -2.45427497      -0.65498947       0.64260836
H       -2.43311707       0.67328779      -0.65473579
C       -0.91132561       0.90220522       0.91563759
C       -0.01476271      -0.02253852       1.78660255
H       -0.67934791      -0.69751639       2.42135241
H        0.63392994       0.61504881       2.47327442
C        0.01484550      -1.77751727      -0.01636693
H        0.67870853      -2.42144646      -0.68295456
H       -0.62264859      -2.45592969       0.64226336
C        1.78714474       0.01002794       0.00389507
H        2.44202412       0.67113390       0.66197326
H        2.45385902      -0.65136977      -0.64189061
C        0.91606151      -0.90478549       0.90901405
