98
Properties=species:S:1:pos:R:3 pbc="F F F"
C        1.79831647       1.79831647      -1.79831647
H        2.54364498       2.39928841      -1.29384177
C        2.12614445       1.31687448      -3.07941855
C        2.84383507       0.46163458      -3.77542477
C        1.16457047       2.35358017      -3.14208491
H        0.15662912       2.02154829      -3.37698460
C        1.56508510       3.71666466      -3.69627463
H        2.29707426       4.27065678      -3.11479890
C        1.66754796       3.89679292      -5.09707184
C        2.36207602       3.61467807      -6.17715420
C        0.55417054       4.57539810      -4.56574622
H       -0.42277733       4.16259505      -4.77982762
H        3.51786770      -0.23165876      -3.28498093
H        2.77014594       0.42444396      -4.85654373
H        3.25099448       2.99574893      -6.12135838
H        2.06904145       4.00110419      -7.14706656
C        0.64051527       6.00903398      -4.46166570
C        0.71282898       7.20970403      -4.37449827
Br       0.82975413       9.15108595      -4.23355591
C       -1.79831647      -1.79831647      -1.79831647
H       -2.10736718      -2.74798270      -1.38142527
C       -2.70331629      -1.15566904      -2.66345215
C       -3.83091694      -0.48541971      -2.76455777
C       -1.59951127      -1.69240028      -3.36832400
H       -0.88389641      -0.95295765      -3.71830794
C       -1.80250093      -2.90495296      -4.27057050
H       -2.08297763      -3.82839623      -3.77115608
C       -2.37740194      -2.73108454      -5.55292625
C       -3.47798598      -2.45775715      -6.21816517
C       -1.00869972      -3.05077229      -5.63584285
H       -0.33411248      -2.25706696      -5.92846590
H       -4.42618965      -0.25748758      -1.88751264
H       -4.18610095      -0.13707792      -3.72795476
H       -4.40896239      -2.26177957      -5.69735982
H       -3.48396971      -2.43102295      -7.30221953
C       -0.66456251      -4.38151477      -6.06513768
C       -0.37634759      -5.49601159      -6.42467210
Br       0.08967154      -7.29805868      -7.00600885
C       -1.79831647       1.79831647       1.79831647
H       -1.63487243       1.73562892       2.86627381
C       -2.18954997       3.04859484       1.28429267
C       -1.81576861       4.27520499       0.98992082
C       -3.26047376       2.12319066       1.27657113
H       -3.52089452       1.74149374       0.29277375
C       -4.41990978       2.30844129       2.24967331
H       -4.17882971       2.20000964       3.30369058
C       -5.41691225       3.27437051       1.97012996
C       -5.69230817       4.55820813       1.90339199
C       -5.90817901       1.96296942       1.82416643
H       -6.08946229       1.61399285       0.81619020
H       -0.79861664       4.60690703       1.16566620
H       -2.51541352       4.98037836       0.55534176
H       -4.93619732       5.30212044       2.12978403
H       -6.68309713       4.90400752       1.63010754
C       -6.79398778       1.47024057       2.84698660
C       -7.53585263       1.05758016       3.70359848
Br      -8.73538535       0.39034318       5.08866746
C        1.79831647      -1.79831647       1.79831647
H        1.47786309      -1.93615038       2.82276169
C        2.45874008      -2.87897506       1.18472233
C        2.33748726      -4.08058247       0.66282469
C        3.35277019      -1.82333525       1.48413011
H        3.68279780      -1.25188892       0.62047528
C        4.37794357      -2.00106549       2.59901532
H        3.97612919      -2.10289258       3.60350816
C        5.54980312      -2.75737559       2.35423401
C        6.03961426      -3.96083351       2.15346052
C        5.83385475      -1.38386949       2.47759062
H        6.09542914      -0.85153785       1.57267835
H        1.37442528      -4.57675696       0.62000762
H        3.19795509      -4.59871847       0.25446008
H        5.39216724      -4.83095018       2.14498436
H        7.10233618      -4.11367995       2.00119607
C        6.47318097      -0.94652682       3.69150716
C        7.00861668      -0.58025233       4.70816227
Br       7.87437093       0.01198253       6.35200759
C       -0.00445707       0.01189536      -1.78238275
H       -0.66409135       0.67374010      -2.43557963
H        0.65740317      -0.63156657      -2.45157240
C       -0.90989263      -0.90692880      -0.91072765
C        0.90977584       0.90977584      -0.90977584
C       -0.00465871       1.77757030       0.00794375
H       -0.66225468       2.44313916      -0.64384735
H        0.64322798       2.43503045       0.67728295
C       -1.78241447       0.00034974      -0.00472694
H       -2.45427497      -0.65498947       0.64260836
H       -2.43311707       0.67328779      -0.65473579
C       -0.91132561       0.90220522       0.91563759
C       -0.01476271      -0.02253852       1.78660255
H       -0.67934791      -0.69751639       2.42135241
H        0.63392994       0.61504881       2.47327442
C        0.01484550      -1.77751727      -0.01636693
H        0.67870853      -2.42144646      -0.68295456
H       -0.62264859      -2.45592969       0.64226336
C        1.78714474       0.01002794       0.00389507
H        2.44202412       0.67113390       0.66197326
H        2.45385902      -0.65136977      -0.64189061
C        0.91606151      -0.90478549       0.90901405
