77
Properties=species:S:1:pos:R:3 pbc="F F F"
C        0.00000000       0.00000000       0.00000000
C        0.88841244       0.88841244      -0.88841244
H        1.63374095       1.48938438      -0.38393775
C        1.21624042       0.40697045      -2.16951453
C        1.93393104      -0.44826944      -2.86552075
C        0.25466645       1.44367614      -2.23218089
H       -0.75327490       1.11164426      -2.46708057
C        0.65518107       2.80676063      -2.78637060
H        1.38717024       3.36075275      -2.20489488
C        0.75764394       2.98688889      -4.18716782
C        1.45217199       2.70477405      -5.26725018
C       -0.35573348       3.66549408      -3.65584219
H       -1.33268136       3.25269103      -3.86992360
H        2.60796368      -1.14156278      -2.37507690
H        1.86024192      -0.48546006      -3.94663971
H        2.34109046       2.08584490      -5.21145435
H        1.15913742       3.09120017      -6.23716253
C       -0.26938875       5.09912995      -3.55176168
C       -0.19707504       6.29980000      -3.46459425
Br      -0.08014989       8.24118192      -3.32365189
C       -0.88841244      -0.88841244      -0.88841244
H       -0.38362301      -1.63128282      -1.49215725
C       -2.16771081      -1.22015458      -0.40486001
C       -2.86022051      -1.94128587       0.45032403
C       -2.23481431      -0.25642516      -1.43928400
H       -2.47121042       0.75025256      -1.10449207
C       -2.79114307      -0.65514635      -2.80202288
H       -2.20927813      -1.38461049      -3.35892924
C       -4.19210653      -0.76032316      -2.97927096
C       -5.27001591      -1.45787457      -2.69630574
C       -3.66476163       0.35573511      -3.65657627
H       -3.88009126       1.33128664      -3.24112865
H       -2.36674283      -2.61576270       1.14102773
H       -3.94141491      -1.87008294       0.49007628
H       -5.21087279      -2.34803745      -2.07947948
H       -6.24143248      -1.16614044      -3.07992720
C       -3.56367709       0.27280209      -5.09062788
C       -3.47901879       0.20334569      -6.29164611
Br      -3.34213347       0.09104056      -8.23359100
C       -0.88841244       0.88841244       0.88841244
H       -0.85679486       1.95311710       0.69715112
C       -2.11526781       0.35377050       1.32368709
C       -3.34288728       0.01988568       0.98840939
C       -1.16383821       0.39594853       2.37073674
H       -0.75108498      -0.57123895       2.64560390
C       -1.34498558       1.39318901       3.51013772
H       -1.26921440       2.44312745       3.24047602
C       -2.27866000       1.11520822       4.53783243
C       -3.55321856       1.02381690       4.84716076
C       -0.95227271       1.01409350       4.99923657
H       -0.57355955       0.01993463       5.19643909
H       -3.70390723       0.16162603      -0.02405546
H       -4.01938126      -0.41412215       1.71616246
H       -4.32103519       1.21260754       4.10474699
H       -3.86746145       0.76722556       5.85281312
C       -0.46386780       2.07082102       5.84681405
C       -0.05482869       2.95583032       6.55666019
Br       0.60655296       4.38681551       7.70442136
C        0.88841244      -0.88841244       0.88841244
H        1.47980450      -0.38510981       1.64214878
C        0.41433111      -2.17562018       1.20277411
C       -0.44098326      -2.88360309       1.90856252
C        1.45877791      -2.22301291       0.24873266
H        1.13624145      -2.45269399      -0.76348551
C        2.82298514      -2.76986517       0.65546199
H        3.36691094      -2.18982134       1.39608558
C        3.01306951      -4.16999525       0.74863589
C        2.73396963      -5.25749071       1.43273588
C        3.69603544      -3.62499246      -0.35542511
H        3.29233685      -3.83470920      -1.33711278
H       -1.14313044      -2.40363733       2.58097090
H       -0.46931649      -3.96437672       1.82636133
H        2.10788085      -5.21322999       2.31727888
H        3.13004521      -6.22215625       1.13529866
C        5.12813170      -3.51066553      -0.25729436
C        6.32751232      -3.41491674      -0.17510985
Br       8.26680935      -3.26009903      -0.04222445
