186
Properties=species:S:1:pos:R:3 pbc="F F F"
O        8.29385066      11.42492996     -12.66998511
C        8.84995240      10.46051222     -11.87575759
C        8.02601427       9.54870039     -11.21230611
C        8.58525205       8.55916918     -10.39704292
N        7.74321535       7.63467051      -9.76237078
C        7.73719681       7.64698929      -8.46485788
C        6.90978269       6.71354254      -7.67650796
C        6.10094191       5.75979131      -8.30436843
C        5.31868061       4.89279679      -7.53571953
C        5.34337308       4.99083179      -6.14096633
C        6.15754514       5.94095311      -5.51350562
C        6.94567010       6.80151351      -6.28155977
C        4.48456443       4.09309640      -5.34050095
N        4.31414141       4.28238254      -4.07209472
C        3.46289601       3.42020068      -3.36326743
C        3.90082100       2.92881217      -2.12990571
C        3.07487117       2.11843321      -1.34637514
C        1.79456689       1.79456689      -1.79456689
C        1.34326097       2.28899138      -3.02058775
O        0.08593345       1.97860444      -3.46210660
C        2.16797987       3.10727840      -3.79662581
C        9.97696498       8.47823132     -10.27708602
C       10.80319534       9.39301802     -10.93403640
C       10.23752519      10.38794494     -11.73267556
H        7.33215458      11.29548775     -12.70567658
H        6.94675574       9.58627477     -11.31676636
H        8.35624377       8.36282180      -7.89190771
H        6.07453068       5.69239477      -9.39006119
H        4.68817951       4.16188249      -8.03460686
H        6.17858546       6.01451561      -4.42840883
H        7.57317332       7.53335040      -5.78140655
H        3.99092907       3.26727090      -5.88497171
H        4.89277251       3.19308598      -1.77199344
H        3.43636623       1.75512446      -0.38764003
H       -0.07530392       2.41502737      -4.31355784
H        1.80662855       3.52189623      -4.73107950
H       10.42359665       7.68973507      -9.67364762
H       11.88106891       9.31566305     -10.82403374
C       11.11581658      11.31306797     -12.40077107
C       11.85138561      12.08785852     -12.96030106
Br      13.04073853      13.34062930     -13.86501373
O      -13.39765171      -9.40274314      -9.58837087
C      -12.11969774      -9.78260209      -9.28392238
C      -11.38816112      -9.05999900      -8.33886066
C      -10.08003031      -9.44014781      -8.02128603
N       -9.37191644      -8.71974382      -7.04859637
C       -8.30025951      -8.10440847      -7.44437601
C       -7.45576262      -7.32699423      -6.51707633
C       -7.77415905      -7.23324414      -5.15769845
C       -6.96360360      -6.48270798      -4.30088534
C       -5.84195032      -5.82179785      -4.81142304
C       -5.52059360      -5.92125561      -6.17015467
C       -6.32589112      -6.67831658      -7.02453566
C       -5.01346929      -5.00191797      -3.90277451
N       -4.09796831      -4.21047978      -4.36017058
C       -3.36006717      -3.42909419      -3.45720275
C       -1.97339114      -3.36376645      -3.62238129
C       -1.19000395      -2.55298904      -2.79668653
C       -1.79456689      -1.79456689      -1.79456689
C       -3.18056149      -1.84442409      -1.62785453
O       -3.77899939      -1.09795880      -0.64968630
C       -3.96178249      -2.64830769      -2.46179390
C       -9.52587172     -10.56585723      -8.64055337
C      -10.25270580     -11.28643699      -9.59110696
C      -11.55145737     -10.89155062      -9.91513770
H      -13.65465556      -8.65827341      -9.02038994
H      -11.81563796      -8.19990970      -7.83424922
H       -7.97310364      -8.13717814      -8.50069149
H       -8.65358779      -7.73905568      -4.76434316
H       -7.22553390      -6.41029771      -3.24883725
H       -4.64615093      -5.40940992      -6.56594904
H       -6.06423653      -6.74736536      -8.07632838
H       -5.22797490      -5.09306622      -2.82213055
H       -1.50236128      -3.94239423      -4.41309642
H       -0.11450932      -2.51415518      -2.95046620
H       -4.73950630      -1.23131583      -0.68245916
H       -5.04102697      -2.66055164      -2.35802566
H       -8.52162358     -10.89121198      -8.37414378
H       -9.80243443     -12.15468941     -10.06364186
C      -12.27681226     -11.65754974     -10.89529362
C      -12.88429698     -12.29907400     -11.71617421
Br     -13.86654839     -13.33636447     -13.04346869
O       -8.28813187      11.44529628      12.65533757
C       -8.84340961      10.47460621      11.86820639
C       -8.01831525       9.56354568      11.20515985
C       -8.57670945       8.56762987      10.39712483
N       -7.73332392       7.64410127       9.76283145
C       -7.73339358       7.65038905       8.46526135
C       -6.90530278       6.71712700       7.67740340
C       -6.08910787       5.77008757       8.30590620
C       -5.30638765       4.90315845       7.53765082
C       -5.33801986       4.99456379       6.14258756
C       -6.15952713       5.93795048       5.51452627
C       -6.94808360       6.79841559       6.28224419
C       -4.47875827       4.09710168       5.34230183
N       -4.31511809       4.28125300       4.07224758
C       -3.46315970       3.41973639       3.36346803
C       -3.90451305       2.92056401       2.13446183
C       -3.07843877       2.11038279       1.35085796
C       -1.79456689       1.79456689       1.79456689
C       -1.33988120       2.29680310       3.01615581
O       -0.07907953       1.99432834       3.45323661
C       -2.16479632       3.11486295       3.79222481
C       -9.96857177       8.47966526      10.28404529
C      -10.79600242       9.39365958      10.94058775
C      -10.23127845      10.39492325      11.73194399
H       -7.32568635      11.32049330      12.68713926
H       -6.93877008       9.60662317      11.30440362
H       -8.35843261       8.36065345       7.89188721
H       -6.05733645       5.70788487       9.39176531
H       -4.67016852       4.17751999       8.03698034
H       -6.18595377       6.00634675       4.42920938
H       -7.58131510       7.52498464       5.78163053
H       -3.97874687       3.27613080       5.88829400
H       -4.89934055       3.17855045       1.77996094
H       -3.44268550       1.74092497       0.39552023
H        0.08407382       2.43546704       4.30188808
H       -1.80104576       3.53551467       4.72304385
H      -10.41431653       7.68629253       9.68637028
H      -11.87400266       9.31078292      10.83598012
C      -11.11076545      11.31906376      12.39982640
C      -11.84733582      12.09303145      12.95917792
Br     -13.03830781      13.34447172      13.86360202
O       13.39837743      -9.41915333       9.57123497
C       12.11750673      -9.79480671       9.27390877
C       11.38501213      -9.07311917       8.32888947
C       10.07390738      -9.44898871       8.01856805
N        9.36470668      -8.72971961       7.04583035
C        8.29741310      -8.10808261       7.44354827
C        7.45227189      -7.33102223       6.51653906
C        7.76520958      -7.24447503       5.15541704
C        6.95419750      -6.49413614       4.29886328
C        5.83759821      -5.82621771       4.81135528
C        5.52167302      -5.91846252       6.17186834
C        6.32738882      -6.67531388       7.02604067
C        5.00873502      -5.00668148       3.90274528
N        4.09861511      -4.20935323       4.36065033
C        3.36018951      -3.42867634       3.45749826
C        1.97453069      -3.35666895       3.62833925
C        1.19107874      -2.54607348       2.80252730
C        1.79456689      -1.79456689       1.79456689
C        3.17960403      -1.85110768       1.62212841
O        3.77701914      -1.11142862       0.63819673
C        3.96095490      -2.65476477       2.45616440
C        9.51759855     -10.56963478       8.64504899
C       10.24542303     -11.28925522       9.59557151
C       11.54723972     -10.89858029       9.91232568
H       13.65612293      -8.67824010       8.99895588
H       11.81399625      -8.21705098       7.81874964
H        7.97467234      -8.13491251       8.50138842
H        8.64075867      -7.75575190       4.76047607
H        7.21190228      -6.42736713       3.24539944
H        4.65114630      -5.40116262       6.56920098
H        6.06997306      -6.73872373       8.07923348
H        5.21819138      -5.10338636       2.82159393
H        1.50443369      -3.92986625       4.42355199
H        0.11643286      -2.50194864       2.96074921
H        4.73707754      -1.24877959       0.66742416
H        5.03968001      -2.67210187       2.34782240
H        8.51082622     -10.89180068       8.38435244
H        9.79347164     -12.15352576      10.07376831
C       12.27351775     -11.66348593      10.89265195
C       12.88177559     -12.30409439      11.71367520
Br      13.86527708     -13.33990411      13.04120037
C       -0.00445707       0.01189536      -1.78238275
H       -0.66409135       0.67374010      -2.43557963
H        0.65740317      -0.63156657      -2.45157240
C       -0.90989263      -0.90692880      -0.91072765
C        0.90977584       0.90977584      -0.90977584
C       -0.00465871       1.77757030       0.00794375
H       -0.66225468       2.44313916      -0.64384735
H        0.64322798       2.43503045       0.67728295
C       -1.78241447       0.00034974      -0.00472694
H       -2.45427497      -0.65498947       0.64260836
H       -2.43311707       0.67328779      -0.65473579
C       -0.91132561       0.90220522       0.91563759
C       -0.01476271      -0.02253852       1.78660255
H       -0.67934791      -0.69751639       2.42135241
H        0.63392994       0.61504881       2.47327442
C        0.01484550      -1.77751727      -0.01636693
H        0.67870853      -2.42144646      -0.68295456
H       -0.62264859      -2.45592969       0.64226336
C        1.78714474       0.01002794       0.00389507
H        2.44202412       0.67113390       0.66197326
H        2.45385902      -0.65136977      -0.64189061
C        0.91606151      -0.90478549       0.90901405
