178
Properties=species:S:1:pos:R:3 pbc="F F F"
O        8.29385066      11.42492996     -12.66998511
C        8.84995240      10.46051222     -11.87575759
C        8.02601427       9.54870039     -11.21230611
C        8.58525205       8.55916918     -10.39704292
N        7.74321535       7.63467051      -9.76237078
C        7.73719681       7.64698929      -8.46485788
C        6.90978269       6.71354254      -7.67650796
C        6.10094191       5.75979131      -8.30436843
C        5.31868061       4.89279679      -7.53571953
C        5.34337308       4.99083179      -6.14096633
C        6.15754514       5.94095311      -5.51350562
C        6.94567010       6.80151351      -6.28155977
C        4.48456443       4.09309640      -5.34050095
N        4.31414141       4.28238254      -4.07209472
C        3.46289601       3.42020068      -3.36326743
C        3.90082100       2.92881217      -2.12990571
C        3.07487117       2.11843321      -1.34637514
C        1.79456689       1.79456689      -1.79456689
C        1.34326097       2.28899138      -3.02058775
O        0.08593345       1.97860444      -3.46210660
C        2.16797987       3.10727840      -3.79662581
C        9.97696498       8.47823132     -10.27708602
C       10.80319534       9.39301802     -10.93403640
C       10.23752519      10.38794494     -11.73267556
Br      11.39390617      11.60598567     -12.61230726
H        7.33215458      11.29548775     -12.70567658
H        6.94675574       9.58627477     -11.31676636
H        8.35624377       8.36282180      -7.89190771
H        6.07453068       5.69239477      -9.39006119
H        4.68817951       4.16188249      -8.03460686
H        6.17858546       6.01451561      -4.42840883
H        7.57317332       7.53335040      -5.78140655
H        3.99092907       3.26727090      -5.88497171
H        4.89277251       3.19308598      -1.77199344
H        3.43636623       1.75512446      -0.38764003
H       -0.07530392       2.41502737      -4.31355784
H        1.80662855       3.52189623      -4.73107950
H       10.42359665       7.68973507      -9.67364762
H       11.88106891       9.31566305     -10.82403374
O      -13.13955161     -10.60735001      -8.64186410
C      -11.77900745     -10.62896753      -8.77824723
C      -10.97868742      -9.95546271      -7.85287065
C       -9.58618621      -9.97098238      -7.98429555
N       -8.79829249      -9.31326359      -7.02870056
C       -8.07858650      -8.31954096      -7.45091652
C       -7.19257705      -7.55613289      -6.55112324
C       -7.08301461      -7.88633652      -5.19575052
C       -6.24400987      -7.14184119      -4.36134586
C       -5.52474117      -6.06376467      -4.88666537
C       -5.63004435      -5.73804313      -6.24391639
C       -6.46192553      -6.48747188      -7.07934596
C       -4.66921169      -5.26190346      -3.98704663
N       -4.15362993      -4.14041850      -4.37457024
C       -3.37430911      -3.40097559      -3.47107942
C       -2.16418499      -2.86912723      -3.92622667
C       -1.37397084      -2.07038530      -3.09532338
C       -1.79456689      -1.79456689      -1.79456689
C       -3.00719290      -2.31231367      -1.33333354
O       -3.42684138      -2.04000606      -0.05979706
C       -3.79959564      -3.10210751      -2.17018092
C       -9.00674297     -10.69007353      -9.03546582
C       -9.80492001     -11.35896517      -9.96636458
C      -11.19423836     -11.32543826      -9.83846907
Br     -12.24157158     -12.25148754     -11.11913997
H      -13.37244730     -10.13454809      -7.82632352
H      -11.41533137      -9.41465952      -7.01980598
H       -8.09963761      -8.00113543      -8.51020024
H       -7.65200581      -8.71858856      -4.78639227
H       -6.17347325      -7.40237242      -3.30882318
H       -5.06781409      -4.90122299      -6.65247282
H       -6.53342035      -6.22399081      -8.13051911
H       -4.50791979      -5.66490794      -2.97034395
H       -1.84245673      -3.07039969      -4.94499552
H       -0.44066636      -1.66279831      -3.47566604
H       -4.29048263      -2.45520449       0.09240583
H       -4.75817769      -3.47471454      -1.82671204
H       -7.92284405     -10.73812521      -9.12601008
H       -9.33536114     -11.90764709     -10.77775748
O       -8.72120521      13.19564943      10.47191108
C       -8.81515394      11.83295400      10.53811427
C       -7.88612296      11.04023384       9.86066397
C       -7.97432047       9.64557104       9.92157264
N       -7.01501009       8.86664727       9.25859928
C       -7.44432830       8.10461713       8.30009856
C       -6.54090447       7.22277203       7.53615667
C       -5.17359890       7.16369700       7.82780575
C       -4.33638171       6.32745000       7.08336522
C       -4.87122951       5.56020962       6.04373208
C       -6.24014805       5.61511071       5.75674511
C       -7.07802446       6.44436128       6.50635763
C       -3.97005618       4.70763388       5.24047172
N       -4.37476157       4.14666009       4.14719701
C       -3.47019888       3.37225027       3.40391497
C       -3.90367433       2.13341543       2.92244912
C       -3.07306152       1.34414918       2.12246882
C       -1.79456689       1.79456689       1.79456689
C       -1.35550653       3.03565031       2.26168327
O       -0.10407377       3.48441998       1.93815074
C       -2.19239095       3.82665248       3.05284065
C       -8.98541955       9.05744288      10.68941988
C       -9.92003913       9.84771662      11.36249400
C       -9.83580541      11.23854310      11.28379718
Br     -11.11986772      12.27522828      12.21710310
H       -7.92758941      13.43808679       9.96764272
H       -7.08325965      11.48467199       9.28186523
H       -8.51275325       8.08442104       8.01379897
H       -4.75730902       7.76982240       8.62985521
H       -3.27491583       6.29623229       7.31352074
H       -6.65597964       5.01562402       4.94990623
H       -8.13825904       6.47648607       6.27318516
H       -2.93736462       4.58904253       5.61676452
H       -4.90568121       1.78787169       3.16429904
H       -3.43658593       0.38791027       1.75463451
H        0.03387834       4.36451307       2.32264657
H       -1.86752030       4.80597895       3.38610502
H       -9.04125816       7.97331236      10.77240881
H      -10.70000825       9.37127880      11.94947865
O       12.38217933      -8.21508300      11.79150339
C       11.72204177      -8.74614693      10.71803351
C       11.06459266      -7.90127846       9.82114965
C       10.38590397      -8.43493843       8.72062175
N        9.75644882      -7.56862396       7.81518385
C        8.46689692      -7.66973038       7.71241668
C        7.68692193      -6.82968777       6.78322348
C        8.31609676      -5.89059528       5.95840961
C        7.55426940      -5.09968026       5.09324727
C        6.16392134      -5.24684493       5.06440493
C        5.53591437      -6.19087392       5.88521559
C        6.29819878      -6.98708555       6.74345903
C        5.36620830      -4.37980590       4.17214758
N        4.07646161      -4.33108570       4.26107136
C        3.36748458      -3.46723378       3.41164576
C        2.22227217      -3.95895893       2.77830778
C        1.43715905      -3.13093009       1.97159038
C        1.79456689      -1.79456689       1.79456689
C        2.93105323      -1.29042865       2.43135823
O        3.28278110       0.02138126       2.26524466
C        3.70797319      -2.11855145       3.24535943
C       10.39730864      -9.81905292       8.51592076
C       11.04826529     -10.66699264       9.41499182
C       11.70943845     -10.12878556      10.51992168
Br      12.58606051     -11.31326031      11.71287827
H       12.34258520      -7.24599374      11.74473997
H       11.06915743      -6.82473613       9.95590330
H        7.89477117      -8.39475750       8.32144460
H        9.39699231      -5.76969637       5.99029796
H        8.05308717      -4.36799016       4.46359153
H        4.45462872      -6.30694138       5.85993979
H        5.79778221      -7.71598525       7.37416281
H        5.93021022      -3.77180803       3.44115343
H        1.93368495      -4.99640284       2.92776415
H        0.54729721      -3.53575278       1.49608072
H        4.07799691       0.21214205       2.78742643
H        4.56955318      -1.72042167       3.76962943
H        9.90244955     -10.24152254       7.64300725
H       11.04132483     -11.73907213       9.24036874
C       -0.00445707       0.01189536      -1.78238275
H       -0.66409135       0.67374010      -2.43557963
H        0.65740317      -0.63156657      -2.45157240
C       -0.90989263      -0.90692880      -0.91072765
C        0.90977584       0.90977584      -0.90977584
C       -0.00465871       1.77757030       0.00794375
H       -0.66225468       2.44313916      -0.64384735
H        0.64322798       2.43503045       0.67728295
C       -1.78241447       0.00034974      -0.00472694
H       -2.45427497      -0.65498947       0.64260836
H       -2.43311707       0.67328779      -0.65473579
C       -0.91132561       0.90220522       0.91563759
C       -0.01476271      -0.02253852       1.78660255
H       -0.67934791      -0.69751639       2.42135241
H        0.63392994       0.61504881       2.47327442
C        0.01484550      -1.77751727      -0.01636693
H        0.67870853      -2.42144646      -0.68295456
H       -0.62264859      -2.45592969       0.64226336
C        1.78714474       0.01002794       0.00389507
H        2.44202412       0.67113390       0.66197326
H        2.45385902      -0.65136977      -0.64189061
C        0.91606151      -0.90478549       0.90901405
