122
Properties=species:S:1:pos:R:3 pbc="F F F"
C        1.79317747       1.79317747      -1.79317747
C        1.29947731       3.00334317      -2.26277255
C        2.11119203       3.78438291      -3.07479919
C        3.40530294       3.37041123      -3.40943839
C        3.93039289       2.15701201      -2.92518982
C        3.08510446       1.36795922      -2.12135910
C        5.34567486       1.68218445      -3.30708545
C        6.31518083       2.85728735      -3.57729031
C        5.99965796       0.82545343      -2.19755882
C        5.23867138       0.83168594      -4.58693331
H        0.29609047       3.32841520      -2.00671444
H        3.99447817       4.00862692      -4.06227337
H        3.41892352       0.40462093      -1.74561839
H        6.03521730       3.42902537      -4.46838494
H        7.33544501       2.49617340      -3.75212746
H        6.34853140       3.54769012      -2.72670024
H        5.48612637      -0.13115697      -2.05380748
H        6.00433783       1.35553593      -1.23787999
H        7.03912665       0.58091502      -2.44710920
H        4.59459373      -0.04250871      -4.43494194
H        6.22251722       0.46749696      -4.90415019
H        4.81499013       1.40934642      -5.41701391
C        1.61204969       5.03516810      -3.58469460
C        1.19401797       6.08270069      -4.01173201
Br       0.51809604       7.77647230      -4.70221538
C       -1.79317747      -1.79317747      -1.79317747
C       -1.20629146      -2.75919742      -2.60010415
C       -2.02359399      -3.54145638      -3.40532376
C       -3.41249623      -3.37111788      -3.40153845
C       -4.02680319      -2.41158752      -2.57420401
C       -3.18057970      -1.61273805      -1.78110503
C       -5.55325386      -2.20125902      -2.58043188
C       -6.33088597      -3.49362498      -2.92524754
C       -6.08843713      -1.72460950      -1.20962359
C       -5.88717959      -1.13216420      -3.63794684
H       -0.12942463      -2.89458602      -2.60720946
H       -4.00694833      -3.99584167      -4.06258846
H       -3.59061259      -0.83098681      -1.14756344
H       -6.15706553      -3.81926822      -3.95629386
H       -7.41242349      -3.34204344      -2.82927895
H       -6.05024662      -4.31573956      -2.25693559
H       -5.73652057      -0.71989351      -0.95236280
H       -5.78500065      -2.40634524      -0.40640786
H       -7.18395554      -1.67556867      -1.20762667
H       -5.39349212      -0.17900586      -3.41452898
H       -6.96590115      -0.94395388      -3.68430935
H       -5.56103740      -1.44262928      -4.63768377
C       -1.43311015      -4.53795126      -4.26085098
C       -0.93857994      -5.37251571      -4.97735502
Br      -0.13896642      -6.72193585      -6.13588145
C       -1.79317747       1.79317747       1.79317747
C       -2.94468038       1.26172855       2.35918410
C       -3.74087767       2.08319697       3.14629949
C       -3.39067222       3.41834063       3.37613971
C       -2.21598586       3.96834182       2.82826704
C       -1.43271641       3.12677489       2.01493148
C       -1.83435215       5.44359284       3.05699977
C       -2.35096279       5.98936742       4.40942828
C       -0.30323518       5.66361717       3.05581786
C       -2.45295439       6.28193700       1.92239924
H       -3.22103769       0.22699441       2.18318801
H       -4.05590216       4.02489919       3.98457711
H       -0.53304804       3.50156474       1.53455006
H       -3.44415146       6.04495074       4.44352541
H       -1.98592651       7.00710764       4.59071172
H       -2.01597911       5.36289485       5.24404780
H        0.14267014       5.47871779       2.07272923
H        0.19231979       5.00831237       3.78176118
H       -0.05178880       6.69864066       3.31672141
H       -2.08365532       5.96275322       0.94061841
H       -2.21145356       7.34473110       2.03797972
H       -3.54539854       6.18951249       1.90643942
C       -4.94715058       1.55541153       3.72935027
C       -5.95740415       1.11339124       4.21765529
Br      -7.59089871       0.39868180       5.00720321
C        1.79317747      -1.79317747       1.79317747
C        2.91896843      -1.24905673       2.39756786
C        3.71595621      -2.07030167       3.18411626
C        3.39164152      -3.41798972       3.37552132
C        2.24269845      -3.98159731       2.78829896
C        1.45875971      -3.13936492       1.97629814
C        1.89024039      -5.47000473       2.97469964
C        2.38861569      -6.03511247       4.32603032
C        0.36504588      -5.72452807       2.93309626
C        2.55359585      -6.26764862       1.83604615
H        3.17520966      -0.20453805       2.25147240
H        4.05679821      -4.02326432       3.98531593
H        0.57910753      -3.52319305       1.46686226
H        3.48174675      -6.06672249       4.38415837
H        2.04322894      -7.06477491       4.47574202
H        2.02042190      -5.43586795       5.16663191
H       -0.06266355      -5.52705659       1.94438384
H       -0.16184368      -5.09758360       3.66201384
H        0.13178819      -6.77073787       3.16462482
H        2.19931437      -5.93426017       0.85345242
H        2.33420931      -7.33802536       1.92192970
H        3.64368908      -6.15018643       1.84747494
C        4.89618764      -1.52899788       3.80672686
C        5.88463148      -1.07565596       4.32816324
Br       7.48286155      -0.34264041       5.17128176
C       -0.00445707       0.01189536      -1.78238275
H       -0.66409135       0.67374010      -2.43557963
H        0.65740317      -0.63156657      -2.45157240
C       -0.90989263      -0.90692880      -0.91072765
C        0.90977584       0.90977584      -0.90977584
C       -0.00465871       1.77757030       0.00794375
H       -0.66225468       2.44313916      -0.64384735
H        0.64322798       2.43503045       0.67728295
C       -1.78241447       0.00034974      -0.00472694
H       -2.45427497      -0.65498947       0.64260836
H       -2.43311707       0.67328779      -0.65473579
C       -0.91132561       0.90220522       0.91563759
C       -0.01476271      -0.02253852       1.78660255
H       -0.67934791      -0.69751639       2.42135241
H        0.63392994       0.61504881       2.47327442
C        0.01484550      -1.77751727      -0.01636693
H        0.67870853      -2.42144646      -0.68295456
H       -0.62264859      -2.45592969       0.64226336
C        1.78714474       0.01002794       0.00389507
H        2.44202412       0.67113390       0.66197326
H        2.45385902      -0.65136977      -0.64189061
C        0.91606151      -0.90478549       0.90901405
