114
Properties=species:S:1:pos:R:3 pbc="F F F"
C        1.79317747       1.79317747      -1.79317747
C        1.29947731       3.00334317      -2.26277255
C        2.11119203       3.78438291      -3.07479919
Br       1.45503204       5.42863370      -3.74509489
C        3.40530294       3.37041123      -3.40943839
C        3.93039289       2.15701201      -2.92518982
C        3.08510446       1.36795922      -2.12135910
C        5.34567486       1.68218445      -3.30708545
C        6.31518083       2.85728735      -3.57729031
C        5.99965796       0.82545343      -2.19755882
C        5.23867138       0.83168594      -4.58693331
H        0.29609047       3.32841520      -2.00671444
H        3.99447817       4.00862692      -4.06227337
H        3.41892352       0.40462093      -1.74561839
H        6.03521730       3.42902537      -4.46838494
H        7.33544501       2.49617340      -3.75212746
H        6.34853140       3.54769012      -2.72670024
H        5.48612637      -0.13115697      -2.05380748
H        6.00433783       1.35553593      -1.23787999
H        7.03912665       0.58091502      -2.44710920
H        4.59459373      -0.04250871      -4.43494194
H        6.22251722       0.46749696      -4.90415019
H        4.81499013       1.40934642      -5.41701391
C       -1.79317747      -1.79317747      -1.79317747
C       -1.23622228      -2.88774286      -2.44162789
C       -2.05104145      -3.66909706      -3.25023562
Br      -1.31236365      -5.15468267      -4.16171431
C       -3.40925508      -3.37039059      -3.40550689
C       -3.99593836      -2.27758951      -2.73906685
C       -3.14963826      -1.48375423      -1.94103028
C       -5.48530914      -1.92747527      -2.92216036
C       -6.35637936      -3.17024190      -3.22313723
C       -6.09412109      -1.26424717      -1.66430195
C       -5.60712293      -0.94656998      -4.10359772
H       -0.18310222      -3.12305736      -2.32506053
H       -4.00061069      -4.00168305      -4.06308471
H       -3.53426339      -0.60604110      -1.42885835
H       -6.12157144      -3.61519150      -4.19586467
H       -7.42075011      -2.90929874      -3.25369702
H       -6.22555800      -3.94169816      -2.45566560
H       -5.66610127      -0.27562516      -1.46705045
H       -5.93884963      -1.88491437      -0.77398975
H       -7.17413263      -1.11322739      -1.77979086
H       -5.04086320      -0.02572437      -3.92043938
H       -6.65164623      -0.66428332      -4.27823482
H       -5.22283080      -1.38747936      -5.03104029
C       -1.79317747       1.79317747       1.79317747
C       -3.00061686       1.29739943       2.26757674
C       -3.79498314       2.11927107       3.05611992
Br      -5.45503097       1.47515093       3.69857873
C       -3.38841305       3.41902317       3.37771634
C       -2.15788894       3.93106125       2.92364453
C       -1.37601459       3.09124392       2.10716427
C       -1.71256148       5.36882695       3.25355634
C       -2.27398531       5.87061276       4.60516041
C       -0.17429420       5.50337203       3.34500398
C       -2.22240819       6.29862087       2.13626156
H       -3.32076029       0.29025623       2.02020359
H       -4.05357579       4.02873629       3.98306638
H       -0.43265086       3.44028675       1.69622524
H       -3.36295161       5.98485868       4.58481731
H       -1.86660777       6.85561681       4.86152128
H       -2.01916595       5.18355514       5.42020067
H        0.31510732       5.34592721       2.37795699
H        0.24513887       4.78437142       4.05852120
H        0.11631825       6.50772503       3.67574410
H       -1.81651531       6.01146295       1.15904870
H       -1.93219551       7.33884831       2.32312055
H       -3.31563107       6.26787940       2.05783998
C        1.79317747      -1.79317747       1.79317747
C        3.00362219      -1.29969201       2.26227883
C        3.79788493      -2.12158147       3.05090773
Br       5.46191779      -1.48064325       3.68619960
C        3.38828469      -3.41905608       3.37781178
C        2.15476829      -3.92866641       2.92916002
C        1.37296607      -3.08895709       2.11249962
C        1.70600842      -5.36400676       3.26492959
C        2.27007859      -5.86333962       4.61634027
C        0.16762308      -5.49347536       3.36157177
C        2.20948313      -6.29884894       2.14895856
H        3.32611925      -0.29432380       2.01077706
H        4.05343330      -4.02895547       3.98298969
H        0.42724772      -3.43633423       1.70558089
H        3.35861627      -5.98103940       4.59297194
H        1.86044502      -6.84626928       4.87703157
H        2.01993364      -5.17296424       5.43002389
H       -0.32429690      -5.33751043       2.39556335
H       -0.24735103      -4.77095980       4.07414498
H       -0.12507495      -6.49588652       3.69633931
H        1.80144208      -6.01346383       1.17212105
H        1.91662533      -7.33758219       2.33995685
H        3.30254663      -6.27175632       2.06704751
C       -0.00445707       0.01189536      -1.78238275
H       -0.66409135       0.67374010      -2.43557963
H        0.65740317      -0.63156657      -2.45157240
C       -0.90989263      -0.90692880      -0.91072765
C        0.90977584       0.90977584      -0.90977584
C       -0.00465871       1.77757030       0.00794375
H       -0.66225468       2.44313916      -0.64384735
H        0.64322798       2.43503045       0.67728295
C       -1.78241447       0.00034974      -0.00472694
H       -2.45427497      -0.65498947       0.64260836
H       -2.43311707       0.67328779      -0.65473579
C       -0.91132561       0.90220522       0.91563759
C       -0.01476271      -0.02253852       1.78660255
H       -0.67934791      -0.69751639       2.42135241
H        0.63392994       0.61504881       2.47327442
C        0.01484550      -1.77751727      -0.01636693
H        0.67870853      -2.42144646      -0.68295456
H       -0.62264859      -2.45592969       0.64226336
C        1.78714474       0.01002794       0.00389507
H        2.44202412       0.67113390       0.66197326
H        2.45385902      -0.65136977      -0.64189061
C        0.91606151      -0.90478549       0.90901405
