138
Properties=species:S:1:pos:R:3 pbc="F F F"
C        1.77192140       1.77192140      -1.77192140
C        3.00281982       1.42765826      -2.17228718
C        3.94269837       2.24149487      -3.05138655
C        4.02300368       1.47283025      -4.39233748
C        3.47147457       3.68576698      -3.33491748
C        4.71410830       4.42103807      -3.82726553
C        5.90695563       3.74187209      -3.14523317
C        5.35720088       2.49329605      -2.39129968
C        5.21644540       2.90873450      -0.89513929
C        6.26919807       1.25186982      -2.39113805
H        1.29035465       2.70338010      -2.04192222
H        3.38626620       0.45670709      -1.85725583
H        4.71109867       1.93413473      -5.10527698
H        3.03994041       1.43630118      -4.87889264
H        4.34398663       0.43460667      -4.24865091
H        3.10386441       4.17958814      -2.42731942
H        2.66398730       3.73441000      -4.07437864
H        4.76060207       4.36926323      -4.92109206
H        4.65994228       5.48325806      -3.56378277
H        6.39494348       4.44381043      -2.45949025
H        4.56925755       3.78155863      -0.76340884
H        6.19538396       3.16684886      -0.47298554
H        4.81125497       2.09557573      -0.28307805
H        6.44168974       0.84749434      -3.39235836
H        5.83368716       0.44290461      -1.79367014
H        7.24788930       1.48346092      -1.95483343
C        6.93021349       3.48406420      -4.12506910
C        7.78719195       3.26815010      -4.94568169
Br       9.17285363       2.91903525      -6.27254285
C       -1.77192140      -1.77192140      -1.77192140
C       -2.90265682      -1.34848233      -2.35162612
C       -3.83391289      -2.15666487      -3.24500202
C       -3.67745549      -1.55032723      -4.66038869
C       -3.51180147      -3.66659182      -3.31376574
C       -4.77382644      -4.31842586      -3.87015960
C       -5.94262729      -3.43861977      -3.41281383
C       -5.33085721      -2.17463247      -2.73630693
C       -5.40186889      -2.42018117      -1.19826913
C       -6.08203119      -0.85175749      -2.97841726
H       -1.37950952      -2.77518914      -1.88095831
H       -3.19830357      -0.31133043      -2.19059513
H       -4.33567645      -2.01756350      -5.39727044
H       -2.65073834      -1.67784489      -5.02655100
H       -3.88504539      -0.47402343      -4.66817539
H       -3.30534264      -4.08440578      -2.32102355
H       -2.64153756      -3.88973755      -3.94150083
H       -4.69646817      -4.39361364      -4.96087554
H       -4.87602719      -5.34100383      -3.48995209
H       -6.58187344      -3.99692229      -2.71944843
H       -4.88193735      -3.33508836      -0.89719931
H       -6.44421551      -2.51953595      -0.87146690
H       -4.96985473      -1.58750435      -0.63254966
H       -6.09662659      -0.55433736      -4.03057849
H       -5.61903283      -0.02821506      -2.42301402
H       -7.12246487      -0.92326234      -2.64045644
C       -6.81679792      -3.19226656      -4.53028232
C       -7.54891581      -2.98594575      -5.46616217
Br      -8.73268854      -2.65234245      -6.97940074
C       -1.77192140       1.77192140       1.77192140
C       -1.36043499       2.92296795       2.31936233
C       -2.17234476       3.86055768       3.20267734
C       -2.40596238       5.13143454       2.35077449
C       -3.54320561       3.30213155       3.64682186
C       -3.96333423       4.17041997       4.82865770
C       -2.66454043       4.62723585       5.50228462
C       -1.48601595       4.16069258       4.59508808
C       -0.92291734       2.85757152       5.23983034
C       -0.28842208       5.12475649       4.49902736
H       -2.76765010       1.36669845       1.90130842
H       -0.34119806       3.24905758       2.10997349
H       -2.94538765       5.91232614       2.89279659
H       -2.99984895       4.89721715       1.45806814
H       -1.46292815       5.56548917       1.99882689
H       -3.46939091       2.26024913       3.98113193
H       -4.29439551       3.32917200       2.84920843
H       -4.57556906       5.00566464       4.46972366
H       -4.58810013       3.59661948       5.52226350
H       -2.59348413       4.19701384       6.50774618
H       -1.68674539       2.08091152       5.34656810
H       -0.52955824       3.06265045       6.24300967
H       -0.09735576       2.43764827       4.65490472
H       -0.54814607       6.08610575       4.04729062
H        0.51523176       4.69555476       3.88993890
H        0.13261149       5.32822062       5.49057452
C       -2.73629809       6.04197161       5.76107710
C       -2.79639512       7.22681282       5.97781580
Br      -2.89356695       9.14260084       6.32826394
C        1.77192140      -1.77192140       1.77192140
C        1.36900415      -2.93599380       2.29776732
C        2.18168161      -3.87455171       3.17934646
C        2.44458658      -5.13014873       2.31343610
C        3.53843619      -3.30361711       3.65010572
C        3.95435342      -4.18240340       4.82565508
C        2.65292284      -4.66628992       5.47484813
C        1.48057250      -4.20338092       4.55784319
C        0.89064014      -2.91718262       5.21249643
C        0.29791786      -5.18233797       4.43195011
H        2.76005720      -1.35492823       1.92067154
H        0.35736142      -3.27307932       2.06978838
H        2.98733122      -5.91103042       2.85214874
H        3.04733915      -4.87543419       1.43236089
H        1.51258570      -5.57215371       1.94250480
H        3.44557828      -2.26758956       3.99760412
H        4.30078895      -3.30927627       2.86271072
H        4.58299531      -5.00411211       4.46384994
H        4.56152298      -3.60978763       5.53567250
H        2.56212405      -4.25109354       6.48502657
H        1.64206906      -2.13168633       5.34046963
H        0.48645812      -3.14155121       6.20720903
H        0.06741694      -2.50052554       4.62196627
H        0.57713989      -6.13366852       3.97073403
H       -0.50319956      -4.75576823       3.81769324
H       -0.13379640      -5.40530968       5.41467036
C        2.74077688      -6.08336862       5.71520130
C        2.81435464      -7.27017202       5.91649707
Br       2.93332366      -9.18913275       6.24197532
C       -0.00445707       0.01189536      -1.78238275
H       -0.66409135       0.67374010      -2.43557963
H        0.65740317      -0.63156657      -2.45157240
C       -0.90989263      -0.90692880      -0.91072765
C        0.90977584       0.90977584      -0.90977584
C       -0.00465871       1.77757030       0.00794375
H       -0.66225468       2.44313916      -0.64384735
H        0.64322798       2.43503045       0.67728295
C       -1.78241447       0.00034974      -0.00472694
H       -2.45427497      -0.65498947       0.64260836
H       -2.43311707       0.67328779      -0.65473579
C       -0.91132561       0.90220522       0.91563759
C       -0.01476271      -0.02253852       1.78660255
H       -0.67934791      -0.69751639       2.42135241
H        0.63392994       0.61504881       2.47327442
C        0.01484550      -1.77751727      -0.01636693
H        0.67870853      -2.42144646      -0.68295456
H       -0.62264859      -2.45592969       0.64226336
C        1.78714474       0.01002794       0.00389507
H        2.44202412       0.67113390       0.66197326
H        2.45385902      -0.65136977      -0.64189061
C        0.91606151      -0.90478549       0.90901405
