117
Properties=species:S:1:pos:R:3 pbc="F F F"
C        0.00000000       0.00000000       0.00000000
C        0.86201738       0.86201738      -0.86201738
C        2.09291579       0.51775424      -1.26238316
C        3.03279435       1.33159084      -2.14148252
C        3.11309966       0.56292622      -3.48243346
C        2.56157054       2.77586295      -2.42501346
C        3.80420428       3.51113405      -2.91736150
C        4.99705161       2.83196807      -2.23532915
C        4.44729686       1.58339203      -1.48139566
C        4.30654137       1.99883047       0.01476473
C        5.35929404       0.34196580      -1.48123402
H        0.38045063       1.79347607      -1.13201820
H        2.47636218      -0.45319693      -0.94735181
H        3.80119465       1.02423071      -4.19537295
H        2.13003639       0.52639716      -3.96898862
H        3.43408261      -0.47529736      -3.33874689
H        2.19396038       3.26968412      -1.51741540
H        1.75408327       2.82450598      -3.16447462
H        3.85069805       3.45935920      -4.01118803
H        3.75003826       4.57335404      -2.65387874
H        5.48503945       3.53390641      -1.54958622
H        3.65935352       2.87165460       0.14649519
H        5.28547994       2.25694483       0.43691849
H        3.90135094       1.18567171       0.62682598
H        5.53178572      -0.06240969      -2.48245433
H        4.92378314      -0.46699942      -0.88376611
H        6.33798528       0.57355689      -1.04492940
C        6.02030947       2.57416018      -3.21516508
C        6.87728792       2.35824607      -4.03577767
Br       8.26294961       2.00913123      -5.36263882
C       -0.86201738      -0.86201738      -0.86201738
C       -1.95549410      -0.42049356      -1.49706553
C       -2.88359736      -1.22745370      -2.39481664
C       -2.65548965      -0.67896697      -3.82400271
C       -2.61449951      -2.74927335      -2.39867409
C       -3.87909703      -3.37617867      -2.97742412
C       -5.03041884      -2.43974758      -2.59418240
C       -4.39715949      -1.17423796      -1.94068709
C       -4.53109664      -1.36093325      -0.39857723
C       -5.09065657       0.16452581      -2.25636311
H       -0.50283209      -1.88176650      -0.92134630
H       -2.21863156       0.63158905      -1.38347454
H       -3.30398632      -1.14931439      -4.56749760
H       -1.62186342      -0.85575710      -4.14780164
H       -2.82332186       0.40297043      -3.87718071
H       -2.45842918      -3.13763652      -1.38499420
H       -1.73141474      -3.02559986      -2.98604927
H       -3.76623373      -3.49373237      -4.06127918
H       -4.03179289      -4.37999847      -2.56547968
H       -5.71356330      -2.94959703      -1.90537175
H       -4.05575284      -2.28197486      -0.04678524
H       -5.58721524      -1.41160929      -0.10668176
H       -4.08918376      -0.52389844       0.15288553
H       -5.05740751       0.42373956      -3.31816241
H       -4.61776939       0.99097279      -1.71375324
H       -6.14424218       0.14200331      -1.95423271
C       -5.85520742      -2.20369668      -3.75073062
C       -6.54596785      -2.00600406      -4.71933975
Br      -7.66286905      -1.68635181      -6.28549879
C       -0.86201738       0.86201738       0.86201738
C       -0.43552176       1.98708161       1.45044982
C       -1.24607167       2.92273015       2.33706589
C       -1.42381635       4.22107555       1.51356744
C       -2.64232374       2.38970398       2.73041923
C       -3.07112171       3.23790314       3.92367497
C       -1.77932406       3.64228617       4.64273860
C       -0.58954534       3.16820428       3.75433491
C       -0.07786246       1.83423255       4.37851211
C        0.63481311       4.10216790       3.71513907
H       -1.87102785       0.48026069       0.95465636
H        0.59705863       2.29121045       1.27636523
H       -1.95704083       5.00173245       2.06202503
H       -1.99957453       4.02603330       0.59981434
H       -0.46078192       4.63882784       1.19792239
H       -2.60452654       1.33789462       3.03863873
H       -3.37102744       2.45746294       1.91457349
H       -3.65167525       4.09821110       3.57135893
H       -3.72884530       2.66314540       4.58528034
H       -1.74629304       3.18435966       5.63787939
H       -0.86417401       1.07570197       4.44463697
H        0.29380542       2.00263383       5.39667787
H        0.75181694       1.40777985       3.80423377
H        0.41227474       5.08150521       3.28259990
H        1.44300318       3.66765461       3.11589840
H        1.03440446       4.26851976       4.72235627
C       -1.82119557       5.05123500       4.93720415
C       -1.85626296       6.23122965       5.18381905
Br      -1.91296397       8.13918119       5.58257449
C        0.86201738      -0.86201738       0.86201738
C        0.44823349      -2.00936857       1.41545113
C        1.25993646      -2.94668300       2.29924825
C        1.48540861      -4.22170174       1.45134899
C        2.63462316      -2.39183426       2.73598954
C        3.05596376      -3.25719902       3.91953705
C        1.75802931      -3.70643539       4.59988413
C        0.57782128      -3.23884254       3.69542071
C        0.02220007      -1.93110678       4.33730027
C       -0.62381627      -4.19865616       3.60765397
H        1.85978068      -0.46013283       0.98603138
H       -0.57304221      -2.33233697       1.21122229
H        2.02391914      -5.00257984       1.99429933
H        2.07675153      -3.99318965       0.55548098
H        0.53937298      -4.65347244       1.10468671
H        2.56608478      -1.34840312       3.06657199
H        3.38263213      -2.42481674       1.93561501
H        3.66361102      -4.09615963       3.56147464
H        3.68558439      -2.68315254       4.60853411
H        1.69248701      -3.27209599       5.60394908
H        0.78940154      -1.15698589       4.43812551
H       -0.36808204      -2.13082867       5.34275966
H       -0.80398987      -1.51025601       3.75393053
H       -0.36951437      -5.16271972       3.15862501
H       -1.42815614      -3.76870380       3.00000218
H       -1.04181097      -4.39670142       4.60158113
C        1.82536287      -5.12043510       4.86383675
C        1.88175473      -6.30465987       5.08489707
Br       1.97293559      -8.21945116       5.44233291
