109
Properties=species:S:1:pos:R:3 pbc="F F F"
C        0.00000000       0.00000000       0.00000000
C        0.86201738       0.86201738      -0.86201738
C        2.09291579       0.51775424      -1.26238316
C        3.03279435       1.33159084      -2.14148252
C        3.11309966       0.56292622      -3.48243346
C        2.56157054       2.77586295      -2.42501346
C        3.80420428       3.51113405      -2.91736150
C        4.99705161       2.83196807      -2.23532915
Br       6.38455017       2.48239042      -3.56394923
C        4.44729686       1.58339203      -1.48139566
C        4.30654137       1.99883047       0.01476473
C        5.35929404       0.34196580      -1.48123402
H        0.38045063       1.79347607      -1.13201820
H        2.47636218      -0.45319693      -0.94735181
H        3.80119465       1.02423071      -4.19537295
H        2.13003639       0.52639716      -3.96898862
H        3.43408261      -0.47529736      -3.33874689
H        2.19396038       3.26968412      -1.51741540
H        1.75408327       2.82450598      -3.16447462
H        3.85069805       3.45935920      -4.01118803
H        3.75003826       4.57335404      -2.65387874
H        5.48503945       3.53390641      -1.54958622
H        3.65935352       2.87165460       0.14649519
H        5.28547994       2.25694483       0.43691849
H        3.90135094       1.18567171       0.62682598
H        5.53178572      -0.06240969      -2.48245433
H        4.92378314      -0.46699942      -0.88376611
H        6.33798528       0.57355689      -1.04492940
C       -0.86201738      -0.86201738      -0.86201738
C       -1.80594527      -0.38391124      -1.68319668
C       -2.72156670      -1.18875491      -2.59554610
C       -2.25788305      -0.86445108      -4.03612520
C       -2.65748340      -2.71862115      -2.38634239
C       -3.91770722      -3.26481580      -3.05017681
C       -4.97183907      -2.15814870      -2.93436106
Br      -5.84755114      -1.92009201      -4.66324668
C       -4.25732832      -0.89986547      -2.35489074
C       -4.59363676      -0.86408941      -0.83288094
C       -4.72612024       0.45703265      -2.91340627
H       -0.63639555      -1.91551478      -0.75403457
H       -1.93907363       0.69739169      -1.72883511
H       -2.87174584      -1.35015154      -4.79890094
H       -1.22607628      -1.20179301      -4.19755288
H       -2.27380876       0.21307432      -4.23679771
H       -2.67339100      -2.98504464      -1.32262426
H       -1.75629539      -3.17124634      -2.81552214
H       -3.69580086      -3.53701797      -4.08842646
H       -4.24878408      -4.18063553      -2.54785144
H       -5.79200974      -2.48928125      -2.28724110
H       -4.28855105      -1.77959935      -0.31636254
H       -5.67394505      -0.75224786      -0.67931337
H       -4.11224326      -0.01875592      -0.32919749
H       -4.53532771       0.56789510      -3.98439775
H       -4.21460566       1.28716242      -2.41310659
H       -5.80140531       0.59764499      -2.75271126
C       -0.86201738       0.86201738       0.86201738
C       -0.54105882       2.11216942       1.21982495
C       -1.36089391       3.05700376       2.08797004
C       -1.84829123       4.17503390       1.13513421
C       -2.59104104       2.40887561       2.76253030
C       -2.98239823       3.36737687       3.88292472
C       -1.68465694       4.04917380       4.33051808
Br      -1.98463117       5.97331477       4.47294389
C       -0.56600911       3.60676226       3.33931316
C        0.22688948       2.46771099       4.04978561
C        0.48103101       4.67935606       2.98416882
H       -1.77731940       0.36710242       1.16152308
H        0.39845971       2.52158460       0.84739216
H       -2.41808099       4.95275653       1.64996079
H       -2.50423997       3.76407730       0.35710490
H       -1.01361220       4.66417992       0.61974002
H       -2.34841839       1.43283525       3.19980625
H       -3.42448802       2.24977241       2.06880344
H       -3.73217447       4.07609073       3.51298008
H       -3.44725171       2.81968259       4.71033675
H       -1.44692421       3.76083050       5.36077738
H       -0.41526170       1.62994730       4.33930395
H        0.70134063       2.84142349       4.96542342
H        1.02801574       2.07246149       3.41575093
H        0.05221018       5.54021228       2.46382827
H        1.25902734       4.26943082       2.33014635
H        0.98165239       5.05311290       3.88501106
C        0.86201738      -0.86201738       0.86201738
C        0.66979244      -2.17735409       1.02590666
C        1.50053386      -3.12662116       1.87871269
C        2.23939203      -4.04416767       0.87489963
C        2.54692961      -2.43442658       2.78109077
C        2.92829623      -3.48051044       3.82389316
C        1.68892055      -4.36223104       4.01319724
Br       2.22220732      -6.24005086       3.96863166
C        0.64489603      -3.92607919       2.94110932
C       -0.36918189      -2.99140536       3.66838364
C       -0.20235321      -5.05699261       2.32785446
H        1.66253209      -0.30772755       1.33568526
H       -0.15736652      -2.64065913       0.48722444
H        2.84311017      -4.81135571       1.36633243
H        2.92142814      -3.46017788       0.24381615
H        1.54265628      -4.55480459       0.20007128
H        2.12793858      -1.55986290       3.29325842
H        3.42717521      -2.08879099       2.22709766
H        3.80325610      -4.04168996       3.47629922
H        3.21686096      -2.99667526       4.76373482
H        1.29657651      -4.24248128       5.02947430
H        0.11825997      -2.13018564       4.13606732
H       -0.89354785      -3.53577354       4.46328059
H       -1.13608798      -2.61190253       2.98438212
H        0.39436259      -5.78546585       1.77200193
H       -0.94610261      -4.65770097       1.62895148
H       -0.75074716      -5.60249927       3.10471947
