194
Properties=species:S:1:pos:R:3 pbc="F F F"
C        1.79163768       1.79163768      -1.79163768
C        2.68737166       1.20102197      -2.68077460
C        3.49892956       2.00705350      -3.48203641
C        3.43504748       3.40137221      -3.36896457
C        2.51353128       3.98483289      -2.49717212
C        1.69269955       3.17984128      -1.70327997
O        4.21108742       4.27175227      -4.10807959
C        5.46877334       3.84680405      -4.46683997
C        6.38532855       3.37119741      -3.53101322
C        7.61506141       2.86406707      -3.96017929
C        7.96855150       2.85672654      -5.32197781
C        7.05884972       3.43052740      -6.23139592
C        5.81828317       3.92142690      -5.81058376
C        9.22815246       2.23019515      -5.78336806
C       10.41587100       2.31518329      -5.03505272
C       11.59314012       1.69103397      -5.46477159
C       11.61397664       0.98359189      -6.66371944
C       10.44207087       0.85569883      -7.40739038
C        9.26833971       1.48223589      -6.97463544
O       12.80820551       0.38878606      -7.00379739
C       13.14022002       0.29991811      -8.33588705
C       12.99866762       1.36500573      -9.23103325
C       13.35967744       1.20144372     -10.56951399
C       13.89153903      -0.01515426     -10.99774971
C       14.07491970      -1.06547925     -10.09863496
C       13.70339976      -0.90433366      -8.76300205
Br      14.37085833      -0.23988492     -12.81267414
H        2.76320195       0.11972708      -2.75949956
H        4.18029591       1.53235710      -4.18327188
H        2.44057461       5.06714468      -2.42916464
H        0.98557468       3.64320180      -1.02075505
H        6.13528079       3.35307823      -2.47375177
H        8.28043623       2.43789466      -3.21280964
H        7.30157867       3.48884627      -7.29045179
H        5.12021059       4.33110519      -6.53502705
H       10.44268848       2.87450251      -4.10233852
H       12.49388663       1.76295649      -4.86102244
H       10.41918932       0.26774136      -8.32053849
H        8.37002545       1.35423131      -7.57531530
H       12.60270134       2.32067871      -8.89684805
H       13.22538769       2.02503742     -11.26576944
H       14.50363370      -2.00900540     -10.42648171
H       13.84535711      -1.71823475      -8.05690702
C       -1.79163768      -1.79163768      -1.79163768
C       -2.71614498      -1.20172372      -2.65129954
C       -3.52760616      -2.00795759      -3.45245572
C       -3.43439177      -3.40267028      -3.36832221
C       -2.48459532      -3.98458337      -2.52635761
C       -1.66398983      -3.17906176      -1.73276921
O       -4.20786484      -4.27373200      -4.10932245
C       -5.48044425      -3.86691383      -4.43505929
C       -6.38733515      -3.42786647      -3.47233756
C       -7.63496674      -2.93697437      -3.86736665
C       -8.01547068      -2.91016509      -5.22162008
C       -7.11299729      -3.44801826      -6.15975749
C       -5.85501750      -3.92230846      -5.77296787
C       -9.29591984      -2.29988372      -5.64591210
C      -10.46668668      -2.42294620      -4.87647413
C      -11.66416133      -1.81402906      -5.27075530
C      -11.72252480      -1.08395793      -6.45480524
C      -10.56830687      -0.91841101      -7.21844220
C       -9.37426217      -1.52984418      -6.82110469
O      -12.93460425      -0.50645250      -6.75973221
C      -13.29463712      -0.39829907      -8.08308899
C      -13.15017994      -1.44276109      -9.00176556
C      -13.54077621      -1.26039317     -10.32946576
C      -14.10458392      -0.04648493     -10.72306564
C      -14.29048744       0.98231344      -9.79990141
C      -13.88948857       0.80262483      -8.47520440
Br     -14.62408247       0.20394681     -12.52351189
H       -2.81453460      -0.12081897      -2.70707502
H       -4.23184781      -1.53332084      -4.13075624
H       -2.38927099      -5.06635320      -2.48125975
H       -0.93459110      -3.64149232      -1.07344811
H       -6.11676839      -3.42535520      -2.41998720
H       -8.29355038      -2.53869590      -3.09889425
H       -7.37550192      -3.49053366      -7.21484115
H       -5.16361479      -4.30389655      -6.51883149
H      -10.46411928      -3.00071941      -3.95469082
H      -12.55118800      -1.91552838      -4.65114919
H      -10.57497756      -0.31246913      -8.12002248
H       -8.49069654      -1.37239236      -7.43648317
H      -12.72915440      -2.39671117      -8.69436253
H      -13.40433063      -2.06746620     -11.04439772
H      -14.74388615       1.92334865     -10.10057252
H      -14.03321518       1.59966557      -7.75047977
C       -1.79163768       1.79163768       1.79163768
C       -1.42769432       3.11630299       2.02517093
C       -2.22997909       3.92077095       2.83726943
C       -3.37704747       3.38901784       3.43931895
C       -3.75022799       2.06958920       3.17571911
C       -2.95482642       1.26690467       2.35408971
O       -4.21635455       4.10625850       4.26830623
C       -3.64969254       5.09577986       5.03694496
C       -2.56147580       4.85309498       5.87296841
C       -1.96495784       5.91367995       6.56066998
C       -2.46389190       7.22519179       6.45817215
C       -3.62132988       7.41990462       5.67953854
C       -4.21102416       6.36628712       4.97298255
C       -1.77208561       8.36127327       7.10835678
C       -1.16237331       8.23441244       8.36932126
C       -0.48249805       9.30623154       8.96021609
C       -0.41396725      10.53607778       8.31124295
C       -0.98070503      10.67861968       7.04583537
C       -1.66020833       9.60511636       6.45988636
O        0.28610885      11.53110408       8.95579373
C       -0.13689616      12.83173413       8.80739488
C       -1.47879157      13.21398420       8.90193083
C       -1.83302107      14.55480921       8.74280487
C       -0.84023339      15.51018631       8.52371478
C        0.50318101      15.13895483       8.47230159
C        0.85510871      13.79654797       8.62062888
Br      -1.32104225      17.32459572       8.29800958
H       -0.52645231       3.53284678       1.58312950
H       -1.94275597       4.95689234       2.99627658
H       -4.65627852       1.66309390       3.61751152
H       -3.24835521       0.23840776       2.16276857
H       -2.14684852       3.85273624       5.96252604
H       -1.07617300       5.70365476       7.15131278
H       -4.07288787       8.40675868       5.60123017
H       -5.08517770       6.54713953       4.35402560
H       -1.21069156       7.29426444       8.91457352
H       -0.01022493       9.17719842       9.93044222
H       -0.89827963      11.61235484       6.49683470
H       -2.08298082       9.74903577       5.46755547
H       -2.25326034      12.47512577       9.09184199
H       -2.87973868      14.84273610       8.79371977
H        1.27978484      15.88353538       8.31735947
H        1.90026908      13.50089414       8.58340433
C        1.79163768      -1.79163768       1.79163768
C        1.24253539      -2.90884620       2.41778665
C        2.04685128      -3.71125118       3.22991701
C        3.39030928      -3.37602662       3.43904835
C        3.93957265      -2.27206736       2.78389629
C        3.13903029      -1.47497247       1.96181804
O        4.25125587      -4.10173888       4.23792453
C        3.71100955      -4.74430809       5.32709972
C        2.93817638      -4.07515620       6.27420661
C        2.33521299      -4.79361869       7.31047609
C        2.52180890      -6.18176194       7.44368501
C        3.38415586      -6.81145701       6.52516017
C        3.97453668      -6.10162450       5.47413265
C        1.80416308      -6.95526633       8.48228626
C        1.56837786      -6.43165519       9.76607397
C        0.85990257      -7.15904429      10.72999882
C        0.38786993      -8.43579297      10.43762507
C        0.57871334      -8.96434999       9.16209675
C        1.28841259      -8.23429010       8.20250835
O       -0.31102486      -9.07470598      11.43710784
C       -0.20572953     -10.44258392      11.53917079
C        1.01341741     -11.12293978      11.45834941
C        1.04288329     -12.51375569      11.57399616
C       -0.14233333     -13.21303720      11.80343062
C       -1.35427733     -12.53417849      11.92817425
C       -1.38396036     -11.14458563      11.80144288
Br      -0.10367839     -15.09752177      11.94980417
H        0.19502072      -3.16489442       2.28251345
H        1.60899485      -4.58915921       3.69777082
H        4.98958558      -2.02679586       2.92050250
H        3.57323216      -0.61228581       1.46401357
H        2.76643529      -3.00553381       6.19014169
H        1.68321297      -4.25420047       7.99372709
H        3.59639015      -7.87532655       6.60916002
H        4.61135587      -6.61535124       4.75963572
H        1.93770721      -5.44487450      10.03694780
H        0.68174368      -6.72560349      11.71051840
H        0.17740319      -9.93723416       8.89283182
H        1.41116942      -8.67379092       7.21461173
H        1.94149476     -10.57975045      11.29898290
H        1.99015390     -13.03928370      11.48675695
H       -2.27673163     -13.07531108      12.12253056
H       -2.32478381     -10.60941069      11.89940250
C       -0.00445707       0.01189536      -1.78238275
H       -0.66409135       0.67374010      -2.43557963
H        0.65740317      -0.63156657      -2.45157240
C       -0.90989263      -0.90692880      -0.91072765
C        0.90977584       0.90977584      -0.90977584
C       -0.00465871       1.77757030       0.00794375
H       -0.66225468       2.44313916      -0.64384735
H        0.64322798       2.43503045       0.67728295
C       -1.78241447       0.00034974      -0.00472694
H       -2.45427497      -0.65498947       0.64260836
H       -2.43311707       0.67328779      -0.65473579
C       -0.91132561       0.90220522       0.91563759
C       -0.01476271      -0.02253852       1.78660255
H       -0.67934791      -0.69751639       2.42135241
H        0.63392994       0.61504881       2.47327442
C        0.01484550      -1.77751727      -0.01636693
H        0.67870853      -2.42144646      -0.68295456
H       -0.62264859      -2.45592969       0.64226336
C        1.78714474       0.01002794       0.00389507
H        2.44202412       0.67113390       0.66197326
H        2.45385902      -0.65136977      -0.64189061
C        0.91606151      -0.90478549       0.90901405
