181
Properties=species:S:1:pos:R:3 pbc="F F F"
C        0.00000000       0.00000000       0.00000000
C        0.88173366       0.88173366      -0.88173366
C        1.77746763       0.29111795      -1.77087057
C        2.58902554       1.09714947      -2.57213238
C        2.52514345       2.49146819      -2.45906055
C        1.60362726       3.07492886      -1.58726810
C        0.78279553       2.26993725      -0.79337595
O        3.30118340       3.36184825      -3.19817556
C        4.55886931       2.93690003      -3.55693595
C        5.47542452       2.46129339      -2.62110920
C        6.70515739       1.95416304      -3.05027527
C        7.05864747       1.94682251      -4.41207379
C        6.14894569       2.52062338      -5.32149190
C        4.90837915       3.01152287      -4.90067974
C        8.31824844       1.32029113      -4.87346403
C        9.50596698       1.40527927      -4.12514870
C       10.68323609       0.78112994      -4.55486757
C       10.70407262       0.07368787      -5.75381542
C        9.53216684      -0.05420519      -6.49748635
C        8.35843568       0.57233187      -6.06473142
O       11.89830148      -0.52111797      -6.09389337
C       12.23031600      -0.60998592      -7.42598302
C       12.08876359       0.45510171      -8.32112922
C       12.44977342       0.29153969      -9.65960996
C       12.98163501      -0.92505829     -10.08784569
C       13.16501567      -1.97538327      -9.18873094
C       12.79349573      -1.81423769      -7.85309802
H        1.85329793      -0.79017694      -1.84959554
H        3.27039188       0.62245308      -3.27336785
H        1.53067059       4.15724066      -1.51926062
H        0.07567066       2.73329778      -0.11085103
H        5.22537677       2.44317420      -1.56384775
H        7.37053221       1.52799064      -2.30290561
H        6.39167464       2.57894225      -6.38054776
H        4.21030656       3.42120117      -5.62512303
H        9.53278446       1.96459849      -3.19243450
H       11.58398261       0.85305247      -3.95111842
H        9.50928530      -0.64216267      -7.41063447
H        7.46012143       0.44432729      -6.66541127
H       11.69279732       1.41077469      -7.98694402
H       12.31548367       1.11513340     -10.35586541
H       13.59372968      -2.91890942      -9.51657769
H       12.93545309      -2.62813877      -7.14700299
C       13.34672329      -1.09623130     -11.47023867
C       13.65248472      -1.23958870     -12.62799279
Br      14.14687510      -1.47138548     -14.49998328
C       -0.88173366      -0.88173366      -0.88173366
C       -1.89317052      -0.30157193      -1.64471371
C       -2.70428650      -1.10844576      -2.44557513
C       -2.52216667      -2.49686238      -2.45664313
C       -1.48715230      -3.06637115      -1.71230077
C       -0.66736890      -2.25916640      -0.91957343
O       -3.28769211      -3.36949996      -3.20401514
C       -4.60066977      -3.02611648      -3.42591904
C       -5.46884103      -2.70471230      -2.38427378
C       -6.76645876      -2.27181561      -2.67132132
C       -7.23378530      -2.18801725      -3.99574122
C       -6.36249857      -2.60960672      -5.01895568
C       -5.05609847      -3.02480778      -4.73967550
C       -8.57314709      -1.63653327      -4.30232324
C       -9.68273961      -1.88033197      -3.47332336
C      -10.93744459      -1.32670095      -3.75508806
C      -11.11527693      -0.53197579      -4.88432319
C      -10.02435315      -0.24726493      -5.70382992
C       -8.77271791      -0.80380560      -5.41897546
O      -12.37692190      -0.01594382      -5.07821117
C      -12.82677108       0.14833643      -6.36787846
C      -12.67885729      -0.82759233      -7.35854490
C      -13.16389317      -0.59107941      -8.64595049
C      -13.82372163       0.60572244      -8.92642323
C      -14.01169231       1.56312536      -7.92979638
C      -13.51664740       1.33012784      -6.64583651
H       -2.05975751       0.77221268      -1.62517169
H       -3.47776767      -0.63992480      -3.04852034
H       -1.32425017      -4.14057152      -1.74235018
H        0.12922323      -2.71277667      -0.33626602
H       -5.13211389      -2.74818307      -1.35210176
H       -7.39726356      -1.96344704      -1.84071786
H       -6.68896375      -2.60530508      -6.05689582
H       -4.39215812      -3.31580958      -5.54866306
H       -9.58643391      -2.51114586      -2.59223768
H      -11.77528045      -1.52184753      -3.09102552
H      -10.12514728       0.41013108      -6.56274090
H       -7.94142422      -0.55339854      -6.07503723
H      -12.18241073      -1.76939551      -7.13870979
H      -13.02519610      -1.34330291      -9.41798347
H      -14.53917933       2.48958662      -8.14180523
H      -13.66136720       2.07130283      -5.86425294
C      -14.31713247       0.85288402     -10.25648221
C      -14.73036405       1.05988185     -11.37040661
Br     -15.39852457       1.39457982     -13.17152814
C       -0.88173366       0.88173366       0.88173366
C       -0.29111078       1.77466821       1.77367717
C       -1.09711596       2.57594421       2.58524723
C       -2.49129914       2.45914702       2.52522603
C       -3.07487733       1.58350906       1.60743783
C       -2.26995462       0.78957626       0.78657784
O       -3.36158399       3.19802124       3.30160197
C       -2.93434417       3.56108660       4.55727452
C       -2.45400172       2.62882892       5.47499647
C       -1.94483207       3.06243788       6.70232575
C       -1.94007671       4.42515171       7.05231535
C       -2.51852758       5.33076760       6.14176579
C       -3.01151557       4.90552622       4.90353998
C       -1.31151303       4.89136621       8.30912435
C       -1.39154919       4.14588100       9.49896475
C       -0.76549679       4.58020735      10.67352947
C       -0.06107724       5.78100823      10.68949044
C        0.06191586       6.52199919       9.51536467
C       -0.56650745       6.08463976       8.34435176
O        0.53590482       6.12566271      11.88131899
C        0.62220829       7.45882117      12.20970023
C       -0.44552696       8.35087765      12.06858992
C       -0.28447219       9.69069226      12.42575862
C        0.93237978      10.12339594      12.95340625
C        1.98546953       9.22744037      13.13639250
C        1.82679703       7.89045281      12.76870029
H        0.79016913       1.85634958       1.84653606
H       -0.62247803       3.28013326       3.26360152
H       -4.15719424       1.51254986       1.53742776
H       -2.73337050       0.10406061       0.08238835
H       -2.43381332       1.57098018       5.22760522
H       -1.51504803       2.31786635       7.36851408
H       -2.57893870       6.39028929       6.38193667
H       -3.42483042       5.62712991       4.20467043
H       -1.94840706       3.21181255       9.52959783
H       -0.83357094       3.97858568      11.57599688
H        0.64747198       7.43658494       9.48864413
H       -0.44233754       6.68334168       7.44418077
H       -1.40134935       8.01323863      11.67592805
H       -1.11018709      10.38449490      12.29180049
H        2.92924507       9.55879382      13.56184919
H        2.64286417       7.18680553      12.91037595
C        1.10094343      11.50715240      13.31452169
C        1.24211549      12.66604843      13.61695587
Br       1.47037877      14.53988530      14.10596637
C        0.88173366      -0.88173366       0.88173366
C        0.29467969      -1.84507670       1.69969977
C        1.10018476      -2.64664142       2.51148121
C        2.48808455      -2.46091516       2.52667248
C        3.07020050      -1.51387344       1.68175028
C        2.26658272      -0.71911982       0.86040619
O        3.35627640      -3.19541843       3.30951238
C        2.88852051      -3.64052855       4.52365622
C        2.31924503      -2.77906020       5.45952188
C        1.77461766      -3.29702414       6.63795390
C        1.82120541      -4.67418158       6.92215679
C        2.48668725      -5.50476963       5.99960409
C        3.01610613      -4.99537854       4.80909709
C        1.15769331      -5.23181402       8.12249627
C        1.14385622      -4.54363054       9.34890819
C        0.48516527      -5.06523003      10.46883830
C       -0.15846038      -6.29743089      10.39260539
C       -0.18844869      -6.98395457       9.17994213
C        0.47228760      -6.45939371       8.06381767
O       -0.79344151      -6.72905166      11.53546674
C       -0.82865588      -8.07951928      11.79544970
C        0.28773004      -8.91171196      11.66555253
C        0.17690657     -10.27380560      11.95021091
C       -1.04053863     -10.78958538      12.39537565
C       -2.14449704      -9.95489552      12.56796486
C       -2.03540941      -8.59521060      12.27255488
H       -0.78342043      -1.98155011       1.71458685
H        0.62957223      -3.40552768       3.13111291
H        4.14973455      -1.38818956       1.66924775
H        2.72815800       0.02189271       0.21355417
H        2.25810262      -1.71234499       5.26195112
H        1.27708578      -2.60785214       7.31649054
H        2.58838323      -6.57088349       6.19189794
H        3.49761471      -5.66078969       4.09822636
H        1.65135862      -3.58686046       9.45159836
H        0.48021661      -4.50680640      11.40113049
H       -0.72573857      -7.92284625       9.08064942
H        0.42101900      -7.01768316       7.13115783
H        1.24309503      -8.50989938      11.33752161
H        1.04162078     -10.92006589      11.82479581
H       -3.08971472     -10.35150068      12.92961199
H       -2.89135620      -7.93905568      12.40661783
C       -1.15684938     -12.19606998      12.68151006
C       -1.25425963     -13.37400083      12.92114762
Br      -1.41176377     -15.27861538      13.30862129
