173
Properties=species:S:1:pos:R:3 pbc="F F F"
C        0.00000000       0.00000000       0.00000000
C        0.88173366       0.88173366      -0.88173366
C        1.77746763       0.29111795      -1.77087057
C        2.58902554       1.09714947      -2.57213238
C        2.52514345       2.49146819      -2.45906055
C        1.60362726       3.07492886      -1.58726810
C        0.78279553       2.26993725      -0.79337595
O        3.30118340       3.36184825      -3.19817556
C        4.55886931       2.93690003      -3.55693595
C        5.47542452       2.46129339      -2.62110920
C        6.70515739       1.95416304      -3.05027527
C        7.05864747       1.94682251      -4.41207379
C        6.14894569       2.52062338      -5.32149190
C        4.90837915       3.01152287      -4.90067974
C        8.31824844       1.32029113      -4.87346403
C        9.50596698       1.40527927      -4.12514870
C       10.68323609       0.78112994      -4.55486757
C       10.70407262       0.07368787      -5.75381542
C        9.53216684      -0.05420519      -6.49748635
C        8.35843568       0.57233187      -6.06473142
O       11.89830148      -0.52111797      -6.09389337
C       12.23031600      -0.60998592      -7.42598302
C       12.08876359       0.45510171      -8.32112922
C       12.44977342       0.29153969      -9.65960996
C       12.98163501      -0.92505829     -10.08784569
C       13.16501567      -1.97538327      -9.18873094
C       12.79349573      -1.81423769      -7.85309802
Br      13.46095431      -1.14978894     -11.90277011
H        1.85329793      -0.79017694      -1.84959554
H        3.27039188       0.62245308      -3.27336785
H        1.53067059       4.15724066      -1.51926062
H        0.07567066       2.73329778      -0.11085103
H        5.22537677       2.44317420      -1.56384775
H        7.37053221       1.52799064      -2.30290561
H        6.39167464       2.57894225      -6.38054776
H        4.21030656       3.42120117      -5.62512303
H        9.53278446       1.96459849      -3.19243450
H       11.58398261       0.85305247      -3.95111842
H        9.50928530      -0.64216267      -7.41063447
H        7.46012143       0.44432729      -6.66541127
H       11.69279732       1.41077469      -7.98694402
H       12.31548367       1.11513340     -10.35586541
H       13.59372968      -2.91890942      -9.51657769
H       12.93545309      -2.62813877      -7.14700299
C       -0.88173366      -0.88173366      -0.88173366
C       -1.77969096      -1.76863397      -0.29113122
C       -2.58098593      -2.58021999      -1.09710148
C       -2.45926272      -2.52533457      -2.49107490
C       -1.57853782      -1.61250731      -3.07477909
C       -0.78455072      -0.79161028      -2.26994773
O       -3.19781922      -3.30215680      -3.36123119
C       -3.56659638      -4.55513250      -2.93097641
C       -2.63909648      -5.47436938      -2.44436125
C       -3.07859764      -6.69848464      -1.93251342
C       -4.44250164      -7.04383733      -1.93120480
C       -5.34305205      -6.13219651      -2.51581240
C       -4.91193615      -4.89710150      -3.01154411
C       -4.91511267      -8.29691563      -1.29997529
C       -4.17340964      -9.48954002      -1.37344528
C       -4.61384480     -10.66049156      -0.74489725
C       -5.81707260     -10.66998957      -0.04451374
C       -6.55448039      -9.49294882       0.07198121
C       -6.11101622      -8.32556739      -0.55891536
O       -6.16779712     -11.85860736       0.55532759
C       -7.50234891     -12.18217485       0.63821066
C       -8.39029806     -12.04167364      -0.43302282
C       -9.73185703     -12.39375160      -0.27531443
C      -10.17047197     -12.91579064       0.94184020
C       -9.27871651     -13.09823030       1.99858347
C       -7.93995685     -12.73561127       1.84321206
Br     -11.98952699     -13.38298147       1.15857298
H       -1.86528232      -1.83753960       0.79010540
H       -3.28908089      -3.25456727      -0.62256465
H       -1.50367468      -1.54641768      -4.15707950
H       -0.09507914      -0.09132668      -2.73341364
H       -1.58048734      -5.23049622      -2.42141516
H       -2.33775538      -7.36572681      -1.49794627
H       -6.40317331      -6.36898045      -2.57901089
H       -5.62975554      -4.19720031      -3.42967491
H       -3.23756951      -9.52523025      -1.92701768
H       -4.01506727     -11.56521822      -0.80786801
H       -7.47094857      -9.46113955       0.65433101
H       -6.70707188      -7.42295633      -0.43983178
H       -8.04808990     -11.65340940      -1.38901673
H      -10.42239888     -12.26025143      -1.10383217
H       -9.61470985     -13.51935123       2.94266314
H       -7.23956403     -12.87689504       2.66214175
C       -0.88173366       0.88173366       0.88173366
C       -1.75427663       1.79380548       0.29137405
C       -2.55547801       2.60530946       1.09751993
C       -2.45869272       2.52477748       2.49220199
C       -1.60369686       1.58719926       3.07492810
C       -0.80997824       0.76649341       2.26963708
O       -3.19886557       3.29936351       3.36297813
C       -3.53895056       4.56559190       2.94816283
C       -2.58780902       5.47683721       2.49318088
C       -2.99768211       6.71680948       1.99510411
C       -4.35532772       7.08554120       1.97667485
C       -5.28108452       6.17976941       2.53020703
C       -4.87950272       4.92923729       3.01184175
C       -4.79575814       8.35705602       1.35918944
C       -4.03536976       9.53533496       1.46569021
C       -4.44506838      10.72414818       0.85001705
C       -5.63573991      10.76617932       0.12965667
C       -6.39083084       9.60413308      -0.01951591
C       -5.97808413       8.41879712       0.59861772
O       -5.95594900      11.97062538      -0.45549750
C       -7.28321630      12.31845267      -0.55535587
C       -8.19170655      12.17515168       0.49813630
C       -9.52421005      12.55286679       0.32384623
C       -9.93293740      13.10287701      -0.89139200
C       -9.02018207      13.28779380      -1.92961252
C       -7.69061511      12.89962834      -1.75788737
Br     -11.73983659      13.60488179      -1.13078291
H       -1.82008220       1.88244447      -0.78981015
H       -3.24380385       3.29966228       0.62274669
H       -1.54858708       1.50154197       4.15704281
H       -0.14051849       0.04671930       2.73258168
H       -1.53323652       5.21521627       2.48394593
H       -2.23829975       7.37846363       1.58466508
H       -6.33798085       6.43364863       2.57953518
H       -5.61613841       4.23481556       3.40567679
H       -3.10871913       9.54555988       2.03553843
H       -3.83225109      11.61724879       0.93865363
H       -7.29755460       9.59794137      -0.61773887
H       -6.58717951       7.52871343       0.45396705
H       -7.87260447      11.76495107       1.45296048
H      -10.23105765      12.41727344       1.13815139
H       -9.33272050      13.73053321      -2.87185576
H       -6.97395269      13.04267148      -2.56230686
C        0.88173366      -0.88173366       0.88173366
C        1.54595751      -0.32210674       1.97139191
C        2.35803938      -1.12664746       2.77362056
C        2.52878696      -2.48186120       2.46502403
C        1.83587933      -3.04067492       1.38926998
C        1.01389249      -2.23955422       0.59266202
O        3.32455550      -3.34443547       3.19221624
C        4.44033851      -2.81518378       3.79718299
C        5.38894616      -2.07993755       3.08894339
C        6.45503706      -1.48505095       3.76950769
C        6.61617611      -1.64313870       5.15822897
C        5.69318771      -2.46941069       5.82846257
C        4.61283252      -3.05118280       5.15656644
C        7.68847837      -0.93243513       5.89109009
C        8.96478102      -0.73846902       5.33314490
C        9.96116726      -0.03624360       6.02182275
C        9.70930846       0.47130463       7.29357207
C        8.44239561       0.32217708       7.85522947
C        7.45025374      -0.38143297       7.16381225
O       10.73896188       1.16112098       7.89323599
C       10.87034585       1.08455429       9.26052155
C       10.77769827      -0.11663273       9.97066353
C       10.92491245      -0.11720482      11.35880580
C       11.19736223       1.07792878      12.02498896
C       11.33378020       2.27093069      11.31551382
C       11.17552058       2.27200498       9.92884047
Br      11.38654229       1.07866246      13.90605565
H        1.44047425       0.73380773       2.20605000
H        2.85596991      -0.67996266       3.63028025
H        1.94288845      -4.09887272       1.16541070
H        0.48646349      -2.68154545      -0.24818948
H        5.28398468      -1.93060935       2.01780469
H        7.14019835      -0.86150274       3.19972736
H        5.79703160      -2.65933979       6.89479326
H        3.89618969      -3.65941564       5.70102543
H        9.20421559      -1.13628820       4.34931365
H       10.93514782       0.10921533       5.56222102
H        8.20497219       0.75160746       8.82439237
H        6.47029808      -0.47121021       7.62835170
H       10.58473983      -1.05284732       9.45292887
H       10.82842513      -1.05002357      11.90803378
H       11.56153462       3.20066600      11.83052932
H       11.28235233       3.19791208       9.36987706
