189
Properties=species:S:1:pos:R:3 pbc="F F F"
C        0.00000000       0.00000000       0.00000000
C        0.88204725       0.88204725      -0.88204725
C        2.23725966       0.58712356      -1.02067560
C        3.04561355       1.39768355      -1.82182126
C        2.48757662       2.48090979      -2.50653361
C        1.13330665       2.78179981      -2.34405405
C        0.32668144       1.98136868      -1.53357814
O        3.20113692       3.35432983      -3.29551492
C        4.27916607       2.89165872      -4.01188815
C        5.38707530       3.74020100      -4.08471314
C        6.51777062       3.36007312      -4.81310863
C        6.53186514       2.13238921      -5.47409695
C        5.40975317       1.29950146      -5.42825731
C        4.27564551       1.68603354      -4.71482902
C        7.66484686       1.71015891      -6.23391644
C        8.52013903       1.24978062      -6.93680839
C        9.46347449       0.55792666      -7.91691803
C       10.07566730      -0.02727104      -8.76916355
C       10.69790232      -0.71274902      -9.85466312
C       10.14169971      -0.60673142     -11.13264746
C       10.74376666      -1.24946069     -12.21319284
C       11.93114917      -1.96031147     -12.02244540
C       12.45638413      -2.11436648     -10.73790864
C       11.84101490      -1.48737019      -9.65140732
O       12.61092616      -2.57403803     -13.04901797
C       12.77283971      -1.89075811     -14.23559280
C       12.85866331      -2.67697922     -15.38665929
C       13.01732396      -2.07584298     -16.63739219
C       13.09527699      -0.68701577     -16.73104748
C       13.04367703       0.10363004     -15.58448922
C       12.90274206      -0.50053099     -14.33305839
Br      13.27635506       0.13125722     -18.42518216
H        2.67497401      -0.26405927      -0.50653333
H        4.10531441       1.17269124      -1.89785318
H        0.70781730       3.64457291      -2.84955122
H       -0.72513898       2.22545750      -1.41558008
H        5.36647812       4.69926649      -3.57382229
H        7.37447044       4.02748324      -4.86480244
H        5.40959209       0.34940138      -5.95797211
H        3.40251247       1.04010239      -4.71721924
H        9.24111752      -0.01956152     -11.29583764
H       10.29396527      -1.16888554     -13.19897024
H       13.35289441      -2.70931319     -10.58515715
H       12.26227935      -1.60052965      -8.65560742
H       12.79503803      -3.75944413     -15.31007303
H       13.07529088      -2.69678808     -17.52716142
H       13.11249041       1.18620639     -15.65124682
H       12.88453843       0.12733809     -13.44596350
C       -0.88204725      -0.88204725      -0.88204725
C       -1.82277531      -1.72685763      -0.29542589
C       -2.62483842      -2.53872126      -1.10155868
C       -2.50439761      -2.47787467      -2.49274773
C       -1.54379470      -1.64468076      -3.07068505
C       -0.73220377      -0.84266526      -2.26675923
O       -3.22523217      -3.25446239      -3.37128711
C       -4.51613102      -3.60815665      -3.05842527
C       -4.90508834      -4.90590343      -3.40099767
C       -6.20760190      -5.34156181      -3.14178866
C       -7.12030096      -4.47154330      -2.54650704
C       -6.73949715      -3.16269218      -2.23532261
C       -5.44466966      -2.72309196      -2.50874645
C       -8.46188179      -4.87595988      -2.27108053
C       -9.62015326      -5.06264772      -2.02392707
C      -11.11529152      -5.10261759      -1.72041008
C      -12.29667309      -4.98510185      -1.53578488
C      -13.69634241      -4.74603964      -1.39743437
C      -14.34929098      -3.96392008      -2.35440469
C      -15.72044426      -3.73412664      -2.25292791
C      -16.44757946      -4.32753034      -1.21817331
C      -15.78804239      -5.06156124      -0.23032266
C      -14.41005650      -5.27437598      -0.32061955
O      -17.81000604      -4.19103156      -1.08486850
C      -18.59894814      -4.30929997      -2.20942629
C      -19.78917648      -3.57872542      -2.20044149
C      -20.65234150      -3.62915167      -3.29738001
C      -20.32294004      -4.41684141      -4.39952725
C      -19.15344917      -5.17490140      -4.40344571
C      -18.30037647      -5.13678264      -3.29811035
Br     -21.47237442      -4.46112896      -5.89929107
H       -1.93550189      -1.76641667       0.78447047
H       -3.33355870      -3.21273999      -0.62956014
H       -1.42732663      -1.62367972      -4.15093508
H        0.01084545      -0.19859505      -2.72814900
H       -4.19110162      -5.57638223      -3.87208305
H       -6.50118178      -6.35267707      -3.41289727
H       -7.45388043      -2.47499459      -1.78809056
H       -5.17715849      -1.69364762      -2.28902798
H      -13.79676637      -3.53410354      -3.18652373
H      -16.21315647      -3.11408667      -2.99680682
H      -16.34892322      -5.48064191       0.60082676
H      -13.90444714      -5.85774697       0.44483699
H      -20.04156948      -2.96371970      -1.34037774
H      -21.57204081      -3.05073537      -3.28288804
H      -18.89623434      -5.79713296      -5.25657632
H      -17.40221445      -5.74892601      -3.30669957
C       -0.88204725       0.88204725       0.88204725
C       -0.29853418       1.69024920       1.85627545
C       -1.10553738       2.49186135       2.66771963
C       -2.49039712       2.50555950       2.47906340
C       -3.06803773       1.67585999       1.51526279
C       -2.26493351       0.86416804       0.71252671
O       -3.37283640       3.23621543       3.24192984
C       -2.98623196       4.45842612       3.73805486
C       -3.41282930       4.76655439       5.03260576
C       -3.08602540       5.99832336       5.60660361
C       -2.33841534       6.92238001       4.87755595
C       -1.94125150       6.62616654       3.57009390
C       -2.28114873       5.40366424       2.99169511
C       -1.98935349       8.19404981       5.42551890
C       -1.66374225       9.30478792       5.73819787
C       -1.24032274      10.75693090       5.94106555
C       -0.94679944      11.92198172       5.94877866
C       -0.66961051      13.31811347       5.85209244
C       -1.49209334      14.11994407       5.05557834
C       -1.25474547      15.49039642       4.96235693
C       -0.22145131      16.06659947       5.70523233
C        0.63554244      15.25944017       6.45602856
C        0.41027452      13.88260974       6.53271681
O        0.03815203      17.41760387       5.70645426
C       -1.02204081      18.29394185       5.80169175
C       -0.84560209      19.53558533       5.18715596
C       -1.86589331      20.48873867       5.22424119
C       -3.05968944      20.19701753       5.88260172
C       -3.23188472      18.97316758       6.52674399
C       -2.20354510      18.02821785       6.50350650
Br      -4.45497608      21.47180353       5.90601484
H        0.77877589       1.69934778       1.99687620
H       -0.63957323       3.09480902       3.44147657
H       -4.14772234       1.66151835       1.39270074
H       -2.72602081       0.22366018      -0.03378239
H       -4.00210437       4.04503323       5.59242930
H       -3.42336535       6.22938741       6.61400336
H       -1.37402475       7.35172763       2.99121319
H       -1.99091378       5.20474015       1.96418016
H       -2.32468584      13.68455130       4.50815650
H       -1.89422215      16.09997210       4.32985572
H        1.46886518      15.70411752       6.99348603
H        1.07344939      13.26134040       7.12946612
H        0.08561822      19.75863856       4.67264658
H       -1.72078814      21.44864248       4.73623360
H       -4.15729749      18.74408322       7.04856290
H       -2.34408419      17.08629832       7.02745751
C        0.88204725      -0.88204725       0.88204725
C        0.73278833      -0.84489303       2.26737747
C        1.54406666      -1.64638039       3.07467131
C        2.47903103      -2.50553514       2.49045385
C        2.63675813      -2.51971747       1.10268492
C        1.83665018      -1.71000303       0.29497506
O        3.34272562      -3.31205816       3.19619789
C        2.93603807      -3.85495695       4.39171792
C        3.89469183      -3.91034292       5.40695470
C        3.57438740      -4.46920345       6.64736151
C        2.29484034      -4.97904257       6.86446839
C        1.34722363      -4.95359097       5.83669734
C        1.67191413      -4.41060880       4.59398514
C        1.92995806      -5.56385149       8.11511266
C        1.50121863      -6.11671706       9.08879235
C        0.82531018      -6.90763410      10.20537491
C        0.22976169      -7.61876701      10.96903111
C       -0.48780453      -8.54772408      11.77989687
C       -0.57935313      -9.87999863      11.36697024
C       -1.25650282     -10.81108023      12.15292140
C       -1.80199655     -10.41786336      13.37741629
C       -1.76080262      -9.07677120      13.76395772
C       -1.10011583      -8.13936438      12.96580348
O       -2.43594547     -11.29094007      14.23091151
C       -1.86486364     -12.52532216      14.45721589
C       -2.75065051     -13.56286559      14.75612831
C       -2.26772685     -14.85148541      14.99511460
C       -0.89635239     -15.09626418      14.93939691
C       -0.00270979     -14.06014815      14.67435793
C       -0.48650353     -12.76865767      14.45311532
Br      -0.24215350     -16.84567835      15.22926960
H       -0.00445246      -0.19346889       2.72843165
H        1.43625355      -1.58599986       4.15360542
H        3.38775384      -3.16267526       0.65151233
H        1.96857618      -1.73031401      -0.78299159
H        4.89260058      -3.51845440       5.22851192
H        4.32728341      -4.50876882       7.43070389
H        0.35383040      -5.36725643       5.99587875
H        0.93275107      -4.42865208       3.79843094
H       -0.12009347     -10.20207286      10.43541425
H       -1.33070426     -11.84074275      11.81401147
H       -2.22929406      -8.76453278      14.69349965
H       -1.06036335      -7.09898859      13.27873189
H       -3.81947255     -13.36883204      14.79630743
H       -2.96644308     -15.65284371      15.21926359
H        1.06783702     -14.24394838      14.63815822
H        0.22336652     -11.96663097      14.26784253
