197
Properties=species:S:1:pos:R:3 pbc="F F F"
C        0.00000000       0.00000000       0.00000000
C        0.88204725       0.88204725      -0.88204725
C        2.23725966       0.58712356      -1.02067560
C        3.04561355       1.39768355      -1.82182126
C        2.48757662       2.48090979      -2.50653361
C        1.13330665       2.78179981      -2.34405405
C        0.32668144       1.98136868      -1.53357814
O        3.20113692       3.35432983      -3.29551492
C        4.27916607       2.89165872      -4.01188815
C        5.38707530       3.74020100      -4.08471314
C        6.51777062       3.36007312      -4.81310863
C        6.53186514       2.13238921      -5.47409695
C        5.40975317       1.29950146      -5.42825731
C        4.27564551       1.68603354      -4.71482902
C        7.66484686       1.71015891      -6.23391644
C        8.52013903       1.24978062      -6.93680839
C        9.46347449       0.55792666      -7.91691803
C       10.07566730      -0.02727104      -8.76916355
C       10.69790232      -0.71274902      -9.85466312
C       10.14169971      -0.60673142     -11.13264746
C       10.74376666      -1.24946069     -12.21319284
C       11.93114917      -1.96031147     -12.02244540
C       12.45638413      -2.11436648     -10.73790864
C       11.84101490      -1.48737019      -9.65140732
O       12.61092616      -2.57403803     -13.04901797
C       12.77283971      -1.89075811     -14.23559280
C       12.85866331      -2.67697922     -15.38665929
C       13.01732396      -2.07584298     -16.63739219
C       13.09527699      -0.68701577     -16.73104748
C       13.04367703       0.10363004     -15.58448922
C       12.90274206      -0.50053099     -14.33305839
H        2.67497401      -0.26405927      -0.50653333
H        4.10531441       1.17269124      -1.89785318
H        0.70781730       3.64457291      -2.84955122
H       -0.72513898       2.22545750      -1.41558008
H        5.36647812       4.69926649      -3.57382229
H        7.37447044       4.02748324      -4.86480244
H        5.40959209       0.34940138      -5.95797211
H        3.40251247       1.04010239      -4.71721924
H        9.24111752      -0.01956152     -11.29583764
H       10.29396527      -1.16888554     -13.19897024
H       13.35289441      -2.70931319     -10.58515715
H       12.26227935      -1.60052965      -8.65560742
H       12.79503803      -3.75944413     -15.31007303
H       13.07529088      -2.69678808     -17.52716142
H       13.11249041       1.18620639     -15.65124682
H       12.88453843       0.12733809     -13.44596350
C       13.23323443      -0.06360042     -18.02175312
C       13.34877379       0.45850993     -19.10271909
Br      13.53559115       1.30271821     -20.85054964
C       -0.88204725      -0.88204725      -0.88204725
C       -0.45783480      -2.16561177      -1.22161225
C       -1.26119063      -2.96997334      -2.03395439
C       -2.50032080      -2.49833361      -2.47636560
C       -2.90709765      -1.20274288      -2.14931998
C       -2.10012328      -0.39249162      -1.34901335
O       -3.35083034      -3.19919761      -3.30095371
C       -3.41394213      -4.56859959      -3.20017122
C       -3.53753478      -5.27476386      -4.39969080
C       -3.63320004      -6.66912923      -4.38862311
C       -3.61284072      -7.35228619      -3.17322439
C       -3.52325347      -6.64208869      -1.97216978
C       -3.44406530      -5.24989306      -1.98254971
C       -3.71458219      -8.77563708      -3.11870294
C       -3.83381501      -9.95213205      -2.92078099
C       -4.05120029     -11.39934015      -2.48777874
C       -4.30976535     -12.47912054      -2.02867392
C       -4.71370537     -13.70507777      -1.42103329
C       -5.99548644     -13.80044740      -0.87168191
C       -6.42107572     -14.99454390      -0.29187919
C       -5.57933915     -16.10939349      -0.30455046
C       -4.27907847     -15.99943625      -0.80141158
C       -3.84519636     -14.79616058      -1.36369509
O       -5.95014434     -17.33476793       0.19900617
C       -7.20890714     -17.81559654      -0.09317073
C       -7.78068794     -18.65398336       0.86632791
C       -9.05598083     -19.18624105       0.66334871
C       -9.75363055     -18.88116461      -0.50451354
C       -9.17747196     -18.07212336      -1.48220097
C       -7.89491903     -17.55524430      -1.28510612
H        0.49567010      -2.54662236      -0.86649582
H       -0.90505418      -3.95699811      -2.31380653
H       -3.85510722      -0.82448900      -2.52234521
H       -2.42770816       0.61305783      -1.10124827
H       -3.56086336      -4.73560984      -5.34309370
H       -3.73012647      -7.20968438      -5.32694527
H       -3.52597205      -7.16995063      -1.02104290
H       -3.40713103      -4.71424752      -1.03845555
H       -6.67159034     -12.94914971      -0.89665359
H       -7.41541039     -15.05112015       0.14248058
H       -3.60930469     -16.85447964      -0.76495404
H       -2.83591152     -14.72081968      -1.76062592
H       -7.23478908     -18.88770661       1.77682876
H       -9.49435022     -19.83124774       1.41993374
H       -9.71367073     -17.83815096      -2.39812193
H       -7.45014769     -16.94261607      -2.06507626
C      -11.07877420     -19.40799847      -0.70461445
C      -12.18858202     -19.84922182      -0.87219897
Br     -13.98304738     -20.56264267      -1.14316896
C       -0.88204725       0.88204725       0.88204725
C       -0.44260485       2.15265692       1.24979706
C       -1.24609363       2.95687125       2.06215348
C       -2.49995504       2.49872591       2.47633908
C       -2.92237138       1.21559869       2.12119044
C       -2.11556146       0.40523928       1.32082752
O       -3.35248084       3.20005450       3.29844632
C       -3.39150544       4.57178147       3.21942603
C       -3.52345877       5.26019217       4.42833851
C       -3.59611129       6.65594979       4.43889128
C       -3.54437901       7.35845848       3.23551382
C       -3.44646227       6.66660610       2.02444357
C       -3.39023543       5.27330281       2.01296984
C       -3.62190964       8.78400538       3.20300719
C       -3.71857972       9.96539940       3.02274892
C       -3.90504016      11.42290913       2.61036989
C       -4.13824394      12.51420258       2.16511330
C       -4.51192315      13.75647911       1.57141416
C       -5.78266281      13.88211677       1.00283617
C       -6.17896926      15.09244591       0.43608364
C       -5.31944062      16.19279086       0.48105162
C       -4.02959227      16.05312073       0.99721330
C       -3.62485409      14.83376354       1.54643440
O       -5.66173399      17.43223174      -0.00805963
C       -6.91714881      17.92907895       0.27144664
C       -7.45911151      18.79243499      -0.68320311
C       -8.72872793      19.34243081      -0.49228557
C       -9.45059318      19.02993746       0.65877805
C       -8.90407638      18.19554877       1.63217113
C       -7.62704824      17.66071048       1.44751074
H        0.52277555       2.52351885       0.91670478
H       -0.87856542       3.93313013       2.36416328
H       -3.88251061       0.84710848       2.47232234
H       -2.45538227      -0.59053865       1.05105498
H       -3.57128252       4.70614471       5.36213967
H       -3.69977142       7.18262457       5.38436014
H       -3.42473484       7.20992390       1.08230683
H       -3.34637490       4.75262810       1.06083110
H       -6.47291968      13.04188274       1.00259123
H       -7.16488689      15.17264130      -0.01347822
H       -3.34541158      16.89739252       0.98593427
H       -2.62367496      14.73517214       1.95851002
H       -6.89440145      19.03190873      -1.58064326
H       -9.14385146      20.00692296      -1.24511019
H       -9.45918317      17.95557605       2.53518440
H       -7.20538379      17.02809913       2.22435711
C      -10.77008766      19.57538678       0.84591269
C      -11.87516428      20.03220058       1.00263795
Br     -13.66197972      20.77082986       1.25604944
C        0.88204725      -0.88204725       0.88204725
C        2.05559293      -0.36310001       1.42636589
C        2.86599418      -1.17165648       2.22746770
C        2.48196675      -2.48622766       2.50682561
C        1.31573724      -3.00439458       1.93902869
C        0.51151321      -2.20261014       1.12750492
O        3.22179423      -3.37028779       3.25889965
C        3.97206468      -2.90027912       4.31036915
C        5.22377907      -3.49363291       4.49457747
C        6.04280553      -3.09388657       5.55426026
C        5.60106698      -2.10490463       6.43237970
C        4.33452030      -1.53625742       6.26673422
C        3.51088642      -1.94664518       5.21897647
C        6.40485726      -1.67315618       7.53090877
C        6.94831053      -1.24729081       8.51112670
C        7.45787646      -0.65729318       9.82314955
C        7.70890467      -0.20223808      10.90641708
C        7.89562526       0.28868556      12.23287672
C        7.13741545      -0.25809715      13.27210315
C        7.31726158       0.18966211      14.57989934
C        8.29129963       1.15264838      14.85463184
C        9.00910527       1.74014076      13.81096179
C        8.81382274       1.30606230      12.49729160
O        8.56305515       1.60298333      16.12583428
C        8.65159000       0.68201600      17.14810041
C        8.29251406       1.14134387      18.41717320
C        8.34346216       0.28049602      19.51590703
C        8.75992444      -1.03845472      19.34092954
C        9.15152547      -1.49614262      18.08412820
C        9.11665688      -0.62863824      16.98997434
H        2.35173698       0.66348158       1.22919269
H        3.79171831      -0.76273541       2.62140511
H        1.03591547      -4.03716188       2.12886409
H       -0.39322551      -2.61700091       0.69212321
H        5.55870142      -4.26960929       3.81125619
H        7.01458453      -3.56213030       5.69004129
H        3.97850331      -0.77788743       6.96057484
H        2.51815390      -1.51612344       5.12555676
H        6.40738187      -1.03861889      13.07139289
H        6.71250012      -0.23520930      15.37634054
H        9.73113735       2.52444765      14.02204867
H        9.38521060       1.75846333      11.69060984
H        7.96594668       2.16969658      18.54941682
H        8.05455540       0.64629882      20.49740765
H        9.48502474      -2.52097869      17.94394019
H        9.44434188      -0.99354979      16.01994836
C        8.78898080      -1.93497319      20.46743314
C        8.81331549      -2.68580741      21.41087990
Br       8.85266265      -3.89984284      22.93635352
