134
Properties=species:S:1:pos:R:3 pbc="F F F"
C        1.79213518       1.79213518      -1.79213518
C        1.72713451       3.18164915      -1.66211754
C        2.53982418       4.01400192      -2.44676989
C        3.42655952       3.41189798      -3.34797190
C        3.47030039       2.02193260      -3.48484369
Br       4.64562044       1.24251367      -4.74554544
C        2.65752827       1.20383747      -2.70740331
N        2.48560009       5.40054588      -2.23878136
C        3.46637172       6.32125867      -2.45649115
N        4.70505622       6.14959857      -2.75532884
C        5.33273744       7.36399955      -2.82187678
O        6.52600749       7.52456665      -3.02921269
C        4.51538893       8.58350004      -2.61362987
S        2.95373119       7.98526096      -2.25412907
C        4.96559651       9.96015371      -2.60008595
H        6.02911361      10.13130930      -2.46999499
C        4.11885088      11.05613646      -2.88956261
C        4.27339300      12.39419607      -2.54839756
C        3.18423228      13.11188101      -3.09894458
C        2.42191118      12.18465690      -3.76058477
O        2.96710725      10.95194816      -3.63591679
H        1.05385284       3.61668280      -0.92716484
H        4.07552512       4.02263756      -3.97134590
H        2.70334254       0.12345784      -2.81008700
H        1.61686741       5.75920408      -1.86374714
H        5.08512186      12.80238719      -1.96143984
H        2.98505885      14.17159618      -3.02814249
H        1.51043932      12.23568370      -4.33965083
C       -1.79213518      -1.79213518      -1.79213518
C       -1.19867944      -2.71164472      -2.66057703
C       -1.98599246      -3.54669585      -3.46790768
C       -3.37868695      -3.44304822      -3.36469423
C       -3.96282137      -2.50668263      -2.50757267
Br      -5.84699870      -2.35957314      -2.42710771
C       -3.17554327      -1.67861039      -1.71461539
N       -1.34831501      -4.49746273      -4.27914958
C       -1.83682696      -5.69281462      -4.71447996
N       -2.91463359      -6.31116047      -4.38418957
C       -2.97004028      -7.51426234      -5.03431115
O       -3.84561970      -8.35254113      -4.88162601
C       -1.88270439      -7.84221826      -5.98759620
S       -0.80699068      -6.51761843      -5.86851212
C       -1.71277960      -9.06027533      -6.75278124
H       -2.27240777      -9.93092251      -6.42708763
C       -0.98129803      -9.12083418      -7.96241774
C       -0.40856969     -10.22404952      -8.58336742
C        0.18202312      -9.78442611      -9.79265488
C       -0.06658952      -8.43832237      -9.86224096
O       -0.75467135      -8.02987909      -8.77042176
H       -0.11458116      -2.79258583      -2.69053349
H       -4.02321291      -4.07523947      -3.97105620
H       -3.63490976      -0.95996730      -1.04201032
H       -0.40192116      -4.27666586      -4.56123160
H       -0.41580061     -11.23484819      -8.19830008
H        0.71461690     -10.37580658     -10.52360785
H        0.16502845      -7.66717876     -10.58362355
C       -1.79213518       1.79213518       1.79213518
C       -2.93253025       1.24913530       2.38923564
C       -3.74950557       2.03231934       3.21877108
C       -3.37936708       3.36414057       3.44292175
C       -2.24780026       3.90368608       2.82559033
Br      -1.80229273       5.71970173       3.11168510
C       -1.44613564       3.12244014       2.00019326
N       -4.84976833       1.42879054       3.84636845
C       -5.44214706       1.77956814       5.02240634
N       -5.06855333       2.63079061       5.91063969
C       -5.94592415       2.61179207       6.96089755
O       -5.82696236       3.26871347       7.98411100
C       -7.12618033       1.71914317       6.86719535
S       -6.91358294       0.89743901       5.38209928
C       -8.15739641       1.50653915       7.86190061
H       -7.93592511       1.81669978       8.87779302
C       -9.46149256       1.05911305       7.54394434
C      -10.40103560       0.44899779       8.36595323
C      -11.57006714       0.22586257       7.59912816
C      -11.29751631       0.71970192       6.34993462
O      -10.03795053       1.21336579       6.30365588
H       -3.17237590       0.20133484       2.22398974
H       -3.98458129       4.00250429       4.08242301
H       -0.56152941       3.54389644       1.53146153
H       -5.24078763       0.62215102       3.37687997
H      -10.25185237       0.19125944       9.40583707
H      -12.49582013      -0.23035205       7.91932945
H      -11.86184905       0.79314061       5.43078420
C        1.79213518      -1.79213518       1.79213518
C        3.11693076      -2.03382916       1.42014128
C        3.95383339      -2.82495745       2.22180515
C        3.42837878      -3.34845848       3.40959214
C        2.09640450      -3.11738474       3.76328743
Br       1.40435994      -3.87864556       5.35067406
C        1.27153639      -2.33670919       2.96052347
N        5.29412025      -2.98994153       1.84086554
C        6.37045986      -3.23321171       2.64044997
N        6.46187559      -3.22520360       3.92290445
C        7.75701586      -3.47026857       4.29132935
O        8.16968960      -3.46882802       5.44126922
C        8.74603539      -3.74514858       3.22133488
S        7.85620153      -3.56533221       1.77158749
C       10.16582740      -3.99092743       3.36908134
H       10.62307405      -3.69868480       4.30865906
C       10.93106739      -4.71154195       2.42194061
C       12.30491469      -4.69648938       2.21458255
C       12.59854718      -5.61687501       1.17963568
C       11.39570273      -6.16069387       0.81075625
O       10.39177829      -5.62170178       1.54149214
H        3.50507285      -1.58276235       0.50986528
H        4.04627234      -3.96352203       4.05971421
H        0.23996255      -2.15123720       3.24568762
H        5.48859284      -2.89926968       0.85195611
H       13.01404573      -4.08209110       2.75281205
H       13.56536652      -5.85792660       0.76150442
H       11.09758106      -6.90380512       0.08438767
C       -0.00445707       0.01189536      -1.78238275
H       -0.66409135       0.67374010      -2.43557963
H        0.65740317      -0.63156657      -2.45157240
C       -0.90989263      -0.90692880      -0.91072765
C        0.90977584       0.90977584      -0.90977584
C       -0.00465871       1.77757030       0.00794375
H       -0.66225468       2.44313916      -0.64384735
H        0.64322798       2.43503045       0.67728295
C       -1.78241447       0.00034974      -0.00472694
H       -2.45427497      -0.65498947       0.64260836
H       -2.43311707       0.67328779      -0.65473579
C       -0.91132561       0.90220522       0.91563759
C       -0.01476271      -0.02253852       1.78660255
H       -0.67934791      -0.69751639       2.42135241
H        0.63392994       0.61504881       2.47327442
C        0.01484550      -1.77751727      -0.01636693
H        0.67870853      -2.42144646      -0.68295456
H       -0.62264859      -2.45592969       0.64226336
C        1.78714474       0.01002794       0.00389507
H        2.44202412       0.67113390       0.66197326
H        2.45385902      -0.65136977      -0.64189061
C        0.91606151      -0.90478549       0.90901405
