121
Properties=species:S:1:pos:R:3 pbc="F F F"
C        0.00000000       0.00000000       0.00000000
C        0.88223116       0.88223116      -0.88223116
C        0.81723048       2.27174513      -0.75221351
C        1.62992015       3.10409790      -1.53686587
C        2.51665550       2.50199395      -2.43806788
C        2.56039636       1.11202857      -2.57493966
C        1.74762425       0.29393344      -1.79749928
N        1.57569606       4.49064185      -1.32887733
C        2.55646769       5.41135464      -1.54658713
N        3.79515220       5.23969455      -1.84542481
C        4.42283342       6.45409552      -1.91197276
O        5.61610347       6.61466263      -2.11930866
C        3.60548491       7.67359602      -1.70372585
S        2.04382717       7.07535694      -1.34422505
C        4.05569248       9.05024969      -1.69018193
H        5.11920959       9.22140528      -1.56009097
C        3.20894685      10.14623244      -1.97965858
C        3.36348898      11.48429204      -1.63849353
C        2.27432826      12.20197699      -2.18904055
C        1.51200715      11.27475287      -2.85068075
O        2.05720322      10.04204413      -2.72601277
H        0.14394882       2.70677877      -0.01726081
H        3.16562109       3.11273354      -3.06144188
H        1.79343851      -0.78644619      -1.90018297
H        0.70696339       4.84930005      -0.95384311
H        4.17521783      11.89248316      -1.05153582
H        2.07515483      13.26169216      -2.11823847
H        0.60053530      11.32577968      -3.42974681
C        3.45510969       0.51869530      -3.53464987
C        4.20443209       0.02177868      -4.33840718
Br       5.41602305      -0.78169347      -5.63801475
C       -0.88223116      -0.88223116      -0.88223116
C       -0.70332735      -2.26777248      -0.87008929
C       -1.51228362      -3.10210027      -1.65650003
C       -2.51140319      -2.50795342      -2.43736072
C       -2.66976357      -1.11973427      -2.45786676
C       -1.86024282      -0.29903219      -1.67978196
N       -1.33801514      -4.49138442      -1.56581569
C       -2.26164066      -5.46946223      -1.78330658
N       -3.52976599      -5.37656961      -1.97393596
C       -4.06829674      -6.62932545      -2.09127951
O       -5.25907545      -6.86981033      -2.22118898
C       -3.14799347      -7.79096192      -2.04385138
S       -1.61146689      -7.09707388      -1.75486838
C       -3.49153867      -9.19663382      -2.10795161
H       -4.52530717      -9.46236843      -1.91303024
C       -2.59144458     -10.19594817      -2.54744513
C       -2.61754013     -11.56385257      -2.30488186
C       -1.52584784     -12.14808378      -2.99141417
C       -0.89085825     -11.11549130      -3.63109124
O       -1.51475826      -9.94361364      -3.36688823
H        0.05772623      -2.70068508      -0.22502955
H       -3.16115722      -3.12083673      -3.05780256
H       -1.99477670       0.77875919      -1.69115779
H       -0.41747282      -4.80571285      -1.28692088
H       -3.34644123     -12.07897467      -1.69382091
H       -1.24300445     -13.19056778      -3.02151323
H       -0.02787880     -11.04933277      -4.27885022
C       -3.68088323      -0.53057869      -3.29699293
C       -4.52769594      -0.03716090      -3.99976111
Br      -5.89692048       0.76065395      -5.13607781
C       -0.88223116       0.88223116       0.88223116
C       -2.27131891       0.74381978       0.82605044
C       -3.10350824       1.52835957       1.63901611
C       -2.50153818       2.43815514       2.51702401
C       -1.11216155       2.58329961       2.55190344
C       -0.29427173       1.80588877       1.73889648
N       -4.48911117       1.31205962       1.59404445
C       -5.40539577       1.53014167       2.57887202
N       -5.22832636       1.83715181       3.81479340
C       -6.43944982       1.90033183       4.44912005
O       -6.59432738       2.11366186       5.64208553
C       -7.66241839       1.68030717       3.64008121
S       -7.07112654       1.31520493       2.07707768
C       -9.03634855       1.66143106       4.09834449
H       -9.20060417       1.53653109       5.16357058
C      -10.13886291       1.93965560       3.25631937
C      -11.47400486       1.59167553       3.42059417
C      -12.20114910       2.13173791       2.33245878
C      -11.28219779       2.79428226       1.56096073
O      -10.04565952       2.67989935       2.09970125
H       -2.70595735       0.00247160       0.15955945
H       -3.11213047       3.06175065       3.16591539
H        0.78573998       1.91507130       1.77784399
H       -4.85059457       0.92992397       0.72958801
H      -11.87408897       1.00709403       4.23805381
H      -13.26156739       2.05366483       2.13985324
H      -11.34184614       3.36774252       0.64647312
C       -0.51925550       3.55159711       3.43760224
C       -0.02269669       4.36254627       4.17937499
Br       0.78019691       5.67378247       5.37875878
C        0.88223116      -0.88223116       0.88223116
C        2.26853487      -0.71001986       0.86263439
C        3.10003174      -1.49412544       1.67672675
C        2.49965557      -2.43856211       2.51849964
C        1.11372344      -2.61699866       2.51664249
C        0.29668998      -1.83968217       1.70268482
N        4.48072229      -1.24441975       1.67007320
C        5.37865849      -1.46453781       2.67121316
N        5.18010730      -1.80516013       3.89500413
C        6.37721030      -1.85515333       4.55653807
O        6.50917903      -2.09334435       5.74755137
C        7.61316191      -1.58721099       3.78243387
S        7.05005029      -1.19867955       2.21467931
C        8.97513553      -1.54715938       4.27382920
H        9.11135761      -1.44402759       5.34532064
C       10.10342136      -1.77921611       3.45220041
C       11.42562127      -1.40410384       3.65654944
C       12.19079046      -1.90074008       2.57381525
C       11.30631102      -2.56593178       1.76519798
O       10.05510808      -2.49349035       2.27666169
H        2.70075948       0.05707313       0.22430205
H        3.10966277      -3.06306875       3.16706499
H       -0.78100872      -1.97502966       1.71315436
H        4.85308311      -0.83330332       0.82372012
H       11.79231830      -0.83008450       4.49683401
H       13.25325121      -1.79325862       2.40857563
H       11.40109370      -3.11574308       0.83922500
C        0.52362899      -3.61987656       3.36494930
C        0.02942488      -4.45978681       4.07540626
Br      -0.76966136      -5.81785063       5.22415507
