41
Properties=species:S:1:pos:R:3 pbc="F F F"
C        0.00000000       0.00000000       0.00000000
C        0.91209921       0.91209921      -0.91209921
C        1.89378627       1.61254660      -0.03728061
C        3.21787649       1.43906538      -0.11929894
H        0.25542399       1.62268549      -1.42043682
H        1.38099031       0.25476485      -1.64936168
H        1.48874117       2.31246054       0.69100317
H        3.68130535       0.75956366      -0.82598212
C        4.17124157       2.12349547       0.71511731
C        4.96968482       2.69670567       1.41394091
Br       6.26070004       3.62353809       2.54387957
C       -0.91209921      -0.91209921      -0.91209921
C       -0.03072899      -1.66424722      -1.84863727
C        0.07821494      -2.99770250      -1.85675324
H       -1.59422257      -0.25129371      -1.45303002
H       -1.48403910      -1.55937146      -0.24170629
H        0.53427175      -1.07564916      -2.56882113
H       -0.46121886      -3.63801226      -1.16762002
C        0.91867044      -3.72978999      -2.76850018
C        1.62255191      -4.34291327      -3.53208823
Br       2.76066873      -5.33428175      -4.76674554
C       -0.91209921       0.91209921       0.91209921
C       -2.02381870       1.44451137       0.07528341
C       -3.31485021       1.16876338       0.29262720
H       -0.28300268       1.71889759       1.29664603
H       -1.25520605       0.28810528       1.74180551
H       -1.74721309       2.10621922      -0.74323377
H       -3.65307129       0.52042876       1.09335109
C       -4.39360780       1.69136390      -0.50535197
C       -5.29706728       2.12904184      -1.17365953
Br      -6.75788485       2.83673004      -2.25425633
C        0.91209921      -0.91209921       0.91209921
C        0.04605712      -1.56229585       1.93526051
C       -0.13326598      -2.88514984       2.02435694
H        1.65793228      -0.26288269       1.37773133
H        1.40996618      -1.62544658       0.24970409
H       -0.44521544      -0.90517953       2.65023445
H        0.33150788      -3.59072294       1.34462032
C       -0.95884415      -3.51897670       3.01948719
C       -1.65026587      -4.04980669       3.85290877
Br      -2.76823631      -4.90811389       5.20048098
