62
Properties=species:S:1:pos:R:3 pbc="F F F"
C        1.82200324       1.82200324      -1.82200324
C        2.80369029       2.52245062      -0.94718463
C        4.12778051       2.34896940      -1.02920296
H        1.16532802       2.53258951      -2.33034085
H        2.29089434       1.16466888      -2.55926571
H        2.39864520       3.22236456      -0.21890085
H        4.59120938       1.66946769      -1.73588615
C        5.08114559       3.03339949      -0.19478672
C        5.87958885       3.60660970       0.50403689
Br       7.17060406       4.53344211       1.63397555
C       -1.82200324      -1.82200324      -1.82200324
C       -1.00856185      -2.28271794      -2.98204577
C       -0.71752396      -3.56635355      -3.22207537
H       -2.66842426      -1.21207263      -2.14776148
H       -2.18135071      -2.64076359      -1.19271462
H       -0.65590992      -1.51545487      -3.66854582
H       -1.04304267      -4.37563864      -2.57788190
C        0.05718822      -4.01758610      -4.34893393
C        0.70600968      -4.39549337      -5.29267797
Br       1.75509910      -5.00653746      -6.81863227
C       -1.82200324       1.82200324       1.82200324
C       -2.38765718       2.90991200       0.97575638
C       -3.69598635       3.06628649       0.74368004
H       -1.18761108       2.22521562       2.61543168
H       -2.58503346       1.17159994       2.25819551
H       -1.67877532       3.61504471       0.54609059
H       -4.45051266       2.39965371       1.14639683
C       -4.24833932       4.12373272      -0.06274024
C       -4.71093494       5.00934394      -0.73811722
Br      -5.45891292       6.44130238      -1.83014467
C        1.82200324      -1.82200324       1.82200324
C        0.98682365      -2.34895260       2.93754930
C        0.73218338      -3.64900959       3.12475990
H        2.63573976      -1.19587339       2.19664522
H        2.22988940      -2.60633287       1.17860664
H        0.58549456      -1.61780181       3.63661425
H        1.10644856      -4.42448528       2.46562937
C       -0.06353597      -4.16406527       4.20880250
C       -0.72995092      -4.59542440       5.11668818
Br      -1.80748754      -5.29289564       6.58466253
C       -0.00445707       0.01189536      -1.78238275
H       -0.66409135       0.67374010      -2.43557963
H        0.65740317      -0.63156657      -2.45157240
C       -0.90989263      -0.90692880      -0.91072765
C        0.90977584       0.90977584      -0.90977584
C       -0.00465871       1.77757030       0.00794375
H       -0.66225468       2.44313916      -0.64384735
H        0.64322798       2.43503045       0.67728295
C       -1.78241447       0.00034974      -0.00472694
H       -2.45427497      -0.65498947       0.64260836
H       -2.43311707       0.67328779      -0.65473579
C       -0.91132561       0.90220522       0.91563759
C       -0.01476271      -0.02253852       1.78660255
H       -0.67934791      -0.69751639       2.42135241
H        0.63392994       0.61504881       2.47327442
C        0.01484550      -1.77751727      -0.01636693
H        0.67870853      -2.42144646      -0.68295456
H       -0.62264859      -2.45592969       0.64226336
C        1.78714474       0.01002794       0.00389507
H        2.44202412       0.67113390       0.66197326
H        2.45385902      -0.65136977      -0.64189061
C        0.91606151      -0.90478549       0.90901405
