66
Properties=species:S:1:pos:R:3 pbc="F F F"
C        1.81691415       1.81691415      -1.81691415
C        2.14036621       3.22173681      -1.24886745
C        3.54391402       3.06642604      -1.86724672
C        3.34323449       1.53423236      -1.75165005
Br       4.07295056       0.48300571      -3.20043837
H        1.41691000       1.86540291      -2.83736062
H        2.15206745       3.28958188      -0.15456711
H        1.54038031       4.04332974      -1.64768241
H        3.61315062       3.44964211      -2.89148985
H        4.36531435       3.48219986      -1.27755917
H        3.68285042       1.14463257      -0.78178802
C       -1.81691415      -1.81691415      -1.81691415
C       -2.20103566      -3.19292110      -1.21701371
C       -3.57972031      -3.01460101      -1.88326546
C       -3.33495404      -1.48631643      -1.80784643
Br      -3.98740248      -0.45918962      -3.30980255
H       -1.38794633      -1.90926691      -2.82246030
H       -2.24792699      -3.22623000      -0.12205945
H       -1.61517366      -4.04431356      -1.57190524
H       -3.62987191      -3.42729626      -2.89711441
H       -4.43113774      -3.38676230      -1.30717334
H       -3.69142596      -1.05657745      -0.86126760
C       -1.81691415       1.81691415       1.81691415
C       -2.59569863       1.07985089       2.93542096
C       -2.34038327       2.31398986       3.82321365
C       -1.08871031       2.58851542       2.95189117
Br      -0.70576964       4.45031501       2.60030999
H       -2.47259359       2.44549743       1.20158252
H       -2.11791159       0.16724555       3.31105930
H       -3.64541407       0.86630695       2.71967143
H       -3.12959271       3.07098354       3.75370633
H       -2.14579529       2.10143086       4.87784723
H       -0.19611062       2.07604418       3.33711622
C        1.81691415      -1.81691415       1.81691415
C        2.79807798      -1.06320531       2.74968718
C        2.52059018      -2.15611565       3.80088095
C        1.15157568      -2.37032236       3.10721886
Br       0.53287650      -4.19974803       3.02377012
H        2.32343383      -2.58146258       1.21477713
H        2.46878048      -0.06516378       3.06227217
H        3.83119369      -1.00102025       2.39917851
H        3.21050883      -3.00514957       3.73862418
H        2.47736389      -1.81049919       4.83721030
H        0.37128291      -1.71659372       3.52139439
C       -0.00445707       0.01189536      -1.78238275
H       -0.66409135       0.67374010      -2.43557963
H        0.65740317      -0.63156657      -2.45157240
C       -0.90989263      -0.90692880      -0.91072765
C        0.90977584       0.90977584      -0.90977584
C       -0.00465871       1.77757030       0.00794375
H       -0.66225468       2.44313916      -0.64384735
H        0.64322798       2.43503045       0.67728295
C       -1.78241447       0.00034974      -0.00472694
H       -2.45427497      -0.65498947       0.64260836
H       -2.43311707       0.67328779      -0.65473579
C       -0.91132561       0.90220522       0.91563759
C       -0.01476271      -0.02253852       1.78660255
H       -0.67934791      -0.69751639       2.42135241
H        0.63392994       0.61504881       2.47327442
C        0.01484550      -1.77751727      -0.01636693
H        0.67870853      -2.42144646      -0.68295456
H       -0.62264859      -2.45592969       0.64226336
C        1.78714474       0.01002794       0.00389507
H        2.44202412       0.67113390       0.66197326
H        2.45385902      -0.65136977      -0.64189061
C        0.91606151      -0.90478549       0.90901405
