90
Properties=species:S:1:pos:R:3 pbc="F F F"
C        1.76587429       1.76587429      -1.76587429
H        1.99914779       1.36684131      -2.74440658
C        2.24109750       3.03333944      -1.30594494
H        2.00176243       3.36160264      -0.29978518
C        3.10288632       3.86919589      -2.20183844
C        3.46720227       5.23653179      -1.60470535
C        2.29637090       6.16090858      -1.46141989
H        1.31951245       5.88306238      -1.84386016
C        2.47990037       7.44386954      -0.85766754
H        3.43331155       7.79310746      -0.48416348
H        2.60139813       4.01351415      -3.16698312
H        4.03431317       3.32406999      -2.39826144
H        4.20689042       5.71024672      -2.26244666
H        3.94616505       5.09391242      -0.62761262
C        1.37704551       8.35921286      -0.71817651
C        0.45340456       9.12581289      -0.60135277
Br      -1.04004474      10.36534031      -0.41245867
C       -1.76587429      -1.76587429      -1.76587429
H       -2.76766741      -1.94496555      -1.39776271
C       -1.27680267      -2.30903819      -2.99454103
H       -0.24991452      -2.12211871      -3.29111701
C       -2.17364465      -3.16846817      -3.83180783
C       -1.53927017      -3.61020782      -5.15896141
C       -1.31347394      -2.48386374      -6.12136171
H       -1.66680717      -1.48259204      -5.89703579
C       -0.66848629      -2.74196390      -7.37098726
H       -0.32037639      -3.72234763      -7.66785846
H       -3.11157025      -2.63628421      -4.03404093
H       -2.42823223      -4.06896307      -3.25944930
H       -2.20741035      -4.34237584      -5.62979761
H       -0.58844458      -4.12043103      -4.95881448
C       -0.44955823      -1.68298126      -8.32189540
C       -0.26620597      -0.79608330      -9.11828096
Br       0.03025912       0.63795569     -10.40596905
C       -1.76587429       1.76587429       1.76587429
H       -2.70123348       2.08455396       1.32460824
C       -1.36004355       2.13400021       3.08633812
H       -0.39301391       1.81176148       3.45837487
C       -2.25415284       2.99951743       3.92025037
C       -1.72465807       3.24242901       5.34135232
C       -1.71101863       2.01156105       6.19611971
H       -2.13281343       1.07948228       5.83413930
C       -1.18038365       2.07901349       7.52204032
H       -0.77344763       2.98402666       7.95310820
H       -3.25484808       2.55284062       3.97420669
H       -2.35925228       3.97256117       3.42483115
H       -2.36575566       3.99283029       5.82099784
H       -0.71351872       3.66580322       5.28836816
C       -1.16587476       0.91664455       8.37191557
C       -1.15372356      -0.05683943       9.08368609
Br      -1.13407611      -1.63088070      10.23455883
C        1.76587429      -1.76587429       1.76587429
H        1.86235376      -1.45121976       2.79682216
C        2.41262365      -2.92747296       1.24028528
H        2.30534866      -3.16974755       0.18805404
C        3.26846699      -3.76716066       2.13829300
C        3.82887230      -5.02376477       1.45580233
C        2.78014116      -6.03475780       1.10380041
H        1.74775405      -5.89225603       1.40642492
C        3.15336212      -7.22426008       0.40381525
H        4.16916676      -7.44059473       0.10082099
H        2.69571349      -4.05859648       3.02758542
H        4.11487509      -3.15985625       2.48191325
H        4.54846812      -5.49156261       2.13955307
H        4.38063546      -4.73489284       0.55216178
C        2.17062117      -8.22026991       0.06354380
C        1.34757563      -9.05442814      -0.22143355
Br       0.01678060     -10.40319145      -0.68221781
C       -0.00445707       0.01189536      -1.78238275
H       -0.66409135       0.67374010      -2.43557963
H        0.65740317      -0.63156657      -2.45157240
C       -0.90989263      -0.90692880      -0.91072765
C        0.90977584       0.90977584      -0.90977584
C       -0.00465871       1.77757030       0.00794375
H       -0.66225468       2.44313916      -0.64384735
H        0.64322798       2.43503045       0.67728295
C       -1.78241447       0.00034974      -0.00472694
H       -2.45427497      -0.65498947       0.64260836
H       -2.43311707       0.67328779      -0.65473579
C       -0.91132561       0.90220522       0.91563759
C       -0.01476271      -0.02253852       1.78660255
H       -0.67934791      -0.69751639       2.42135241
H        0.63392994       0.61504881       2.47327442
C        0.01484550      -1.77751727      -0.01636693
H        0.67870853      -2.42144646      -0.68295456
H       -0.62264859      -2.45592969       0.64226336
C        1.78714474       0.01002794       0.00389507
H        2.44202412       0.67113390       0.66197326
H        2.45385902      -0.65136977      -0.64189061
C        0.91606151      -0.90478549       0.90901405
