82
Properties=species:S:1:pos:R:3 pbc="F F F"
C        1.76587429       1.76587429      -1.76587429
H        1.99914779       1.36684131      -2.74440658
C        2.24109750       3.03333944      -1.30594494
H        2.00176243       3.36160264      -0.29978518
C        3.10288632       3.86919589      -2.20183844
C        3.46720227       5.23653179      -1.60470535
C        2.29637090       6.16090858      -1.46141989
H        1.31951245       5.88306238      -1.84386016
C        2.47990037       7.44386954      -0.85766754
H        3.43331155       7.79310746      -0.48416348
Br       1.06641776       8.61702651      -0.67888777
H        2.60139813       4.01351415      -3.16698312
H        4.03431317       3.32406999      -2.39826144
H        4.20689042       5.71024672      -2.26244666
H        3.94616505       5.09391242      -0.62761262
C       -1.76587429      -1.76587429      -1.76587429
H       -2.78690004      -1.89303881      -1.43045683
C       -1.25271151      -2.37414877      -2.95352160
H       -0.20899373      -2.23733023      -3.21682628
C       -2.15032653      -3.23132289      -3.79227122
C       -1.48446255      -3.74756268      -5.07641418
C       -1.17939572      -2.66859724      -6.07070643
H       -1.50176492      -1.64688976      -5.89778032
C       -0.49870701      -2.99885364      -7.28387681
H       -0.17803576      -4.00232146      -7.53022526
Br      -0.12040306      -1.70129858      -8.54063040
H       -3.05870813      -2.67274270      -4.05044455
H       -2.46082663      -4.09881604      -3.19700192
H       -2.16245010      -4.47198726      -5.54514643
H       -0.56227024      -4.28477635      -4.82064350
C       -1.76587429       1.76587429       1.76587429
H       -2.01183605       2.73849484       1.36006479
C       -2.22433884       1.31375317       3.04228988
H       -1.91293109       0.34117362       3.40904554
C       -3.08884369       2.20838120       3.87669575
C       -3.56995402       1.55683108       5.18165430
C       -4.52617737       0.42250491       4.97001711
H       -4.88944910       0.18054958       3.97643632
C       -5.00308057      -0.31793661       6.09629348
H       -4.70387889      -0.10782129       7.11452488
Br      -6.19455506      -1.71042215       5.87819913
H       -3.95623214       2.53573669       3.28992656
H       -2.51453663       3.10635815       4.13574981
H       -4.06970523       2.32636420       5.78351437
H       -2.70382454       1.20644590       5.75741966
C        1.76587429      -1.76587429       1.76587429
H        1.29096752      -2.65114056       2.16828760
C        3.12856384      -1.42282260       2.02899544
H        3.53614937      -0.50186107       1.62513981
C        3.96090280      -2.31483761       2.89818024
C        5.42329547      -1.86231916       3.02282477
C        6.19827309      -1.97529312       1.74513317
H        5.75407879      -2.42788426       0.86447195
C        7.55487324      -1.52603199       1.70053222
H        8.06531606      -1.09418982       2.55107661
Br       8.54746965      -1.66412832       0.15073406
H        3.92737391      -3.34161165       2.51290982
H        3.52230782      -2.33083130       3.90350549
H        5.91041755      -2.48679800       3.78236825
H        5.45694526      -0.82657955       3.38416528
C       -0.00445707       0.01189536      -1.78238275
H       -0.66409135       0.67374010      -2.43557963
H        0.65740317      -0.63156657      -2.45157240
C       -0.90989263      -0.90692880      -0.91072765
C        0.90977584       0.90977584      -0.90977584
C       -0.00465871       1.77757030       0.00794375
H       -0.66225468       2.44313916      -0.64384735
H        0.64322798       2.43503045       0.67728295
C       -1.78241447       0.00034974      -0.00472694
H       -2.45427497      -0.65498947       0.64260836
H       -2.43311707       0.67328779      -0.65473579
C       -0.91132561       0.90220522       0.91563759
C       -0.01476271      -0.02253852       1.78660255
H       -0.67934791      -0.69751639       2.42135241
H        0.63392994       0.61504881       2.47327442
C        0.01484550      -1.77751727      -0.01636693
H        0.67870853      -2.42144646      -0.68295456
H       -0.62264859      -2.45592969       0.64226336
C        1.78714474       0.01002794       0.00389507
H        2.44202412       0.67113390       0.66197326
H        2.45385902      -0.65136977      -0.64189061
C        0.91606151      -0.90478549       0.90901405
