61
Properties=species:S:1:pos:R:3 pbc="F F F"
C        0.00000000       0.00000000       0.00000000
C        0.85597027       0.85597027      -0.85597027
H        1.08924377       0.45693729      -1.83450255
C        1.33119347       2.12343542      -0.39604092
H        1.09185840       2.45169862       0.61011885
C        2.19298230       2.95929186      -1.29193441
C        2.55729824       4.32662776      -0.69480132
C        1.38646688       5.25100456      -0.55151587
H        0.40960843       4.97315836      -0.93395614
C        1.56999635       6.53396551       0.05223648
H        2.52340752       6.88320344       0.42574055
Br       0.15651373       7.70712249       0.23101626
H        1.69149410       3.10361012      -2.25707910
H        3.12440914       2.41416596      -1.48835742
H        3.29698640       4.80034270      -1.35254264
H        3.03626102       4.18400840       0.28229140
C       -0.85597027      -0.85597027      -0.85597027
H       -1.81461302      -1.13055100      -0.43551959
C       -0.42096256      -1.27939579      -2.15031146
H        0.56725529      -1.00000683      -2.50068664
C       -1.31603716      -2.14298633      -2.98518509
C       -0.75025646      -2.44848727      -4.37998360
C       -0.66973817      -1.24708200      -5.27216714
H       -1.07220675      -0.29092210      -4.95359407
C       -0.10011258      -1.37424658      -6.57736621
H        0.29056598      -2.30514583      -6.96629056
Br       0.00114760       0.07801013      -7.71177769
H       -2.29949648      -1.66702897      -3.08565787
H       -1.46823611      -3.09562926      -2.46306716
H       -1.39998637      -3.19353067      -4.85635470
H        0.24442404      -2.90152611      -4.28087594
C       -0.85597027       0.85597027       0.85597027
H       -1.09526545       1.83171880       0.45369936
C       -1.32279465       0.39992359       2.12795157
H       -1.01786545      -0.57591282       2.49148555
C       -2.18700821       1.29469616       2.96250420
C       -2.67757854       0.63919723       4.26195155
C       -3.63822681      -0.48944476       4.04020526
H       -3.99783998      -0.72483871       3.04372166
C       -4.12415267      -1.23299121       5.16056392
H       -3.82888121      -1.02924481       6.18123401
Br      -5.32126096      -2.61861472       4.92997372
H       -3.04995172       1.62908102       2.37315058
H       -1.60963766       2.18861745       3.22867742
H       -3.17652307       1.40823133       4.86511732
H       -1.81595174       0.28184241       4.84018386
C        0.85597027      -0.85597027       0.85597027
H        0.44223296      -1.82123895       1.11721170
C        2.14188693      -0.41265999       1.29612289
H        2.48531414       0.58155326       1.02967730
C        2.97706924      -1.30800805       2.15913128
C        4.36329792      -0.73182398       2.48360543
C        5.26617940      -0.63104926       1.29175865
H        4.96075109      -1.02725373       0.32871811
C        6.56449621      -0.05014985       1.43707932
H        6.94062695       0.33518836       2.37543182
Br       7.71179592       0.07613436      -0.00304160
H        3.09167205      -2.28578249       1.67472879
H        2.44730983      -1.47447701       3.10514569
H        4.83876781      -1.38414887       3.22695505
H        4.25017164       0.25740646       2.94521284
