69
Properties=species:S:1:pos:R:3 pbc="F F F"
C        0.00000000       0.00000000       0.00000000
C        0.85597027       0.85597027      -0.85597027
H        1.08924377       0.45693729      -1.83450255
C        1.33119347       2.12343542      -0.39604092
H        1.09185840       2.45169862       0.61011885
C        2.19298230       2.95929186      -1.29193441
C        2.55729824       4.32662776      -0.69480132
C        1.38646688       5.25100456      -0.55151587
H        0.40960843       4.97315836      -0.93395614
C        1.56999635       6.53396551       0.05223648
H        2.52340752       6.88320344       0.42574055
H        1.69149410       3.10361012      -2.25707910
H        3.12440914       2.41416596      -1.48835742
H        3.29698640       4.80034270      -1.35254264
H        3.03626102       4.18400840       0.28229140
C        0.46714148       7.44930884       0.19172751
C       -0.45649947       8.21590887       0.30855125
Br      -1.94994876       9.45543629       0.49744535
C       -0.85597027      -0.85597027      -0.85597027
H       -1.15927826      -0.42171924      -1.79968611
C       -1.24337225      -2.16763015      -0.43966741
H       -0.93608021      -2.53234458       0.53498661
C       -2.10821751      -3.00186719      -1.33412387
C       -2.37292247      -4.41415446      -0.79165040
C       -1.15195137      -5.28232181      -0.75471413
H       -0.21124570      -4.93546355      -1.17001367
C       -1.24016357      -6.60137394      -0.21018787
H       -2.15441741      -7.01777816       0.19132517
H       -1.65109667      -3.07200356      -2.32908309
H       -3.07441413      -2.49689080      -1.45562760
H       -3.12149832      -4.89260710      -1.43576631
H       -2.80687042      -4.34513152       0.21402392
C       -0.08763771      -7.46387984      -0.17320525
C        0.87760269      -8.18622854      -0.14223230
Br       2.43831479      -9.35420528      -0.09215167
C       -0.85597027       0.85597027       0.85597027
H       -0.83012428       1.91514704       0.63541229
C       -1.65530467       0.29516938       1.90019576
H       -1.60981555      -0.77132011       2.09494274
C       -2.50786869       1.19393387       2.74240602
C       -3.37066982       0.44165967       3.76639784
C       -4.44378470      -0.39999818       3.14520079
H       -4.61823554      -0.37587427       2.07436166
C       -5.27931964      -1.20667101       3.97907675
H       -5.17739636      -1.25172849       5.05520255
H       -3.15356352       1.80204639       2.09657341
H       -1.85361951       1.88385906       3.28945396
H       -3.84471383       1.18207611       4.42308179
H       -2.72787743      -0.18631469       4.39641528
C       -6.32747025      -2.01560894       3.41286149
C       -7.20529639      -2.69309446       2.93865622
Br      -8.62466701      -3.78853124       2.17190640
C        0.85597027      -0.85597027       0.85597027
H        0.64855608      -1.91731592       0.81481161
C        1.88304078      -0.29233860       1.67529043
H        2.01759931       0.78408268       1.69992155
C        2.72754096      -1.19148096       2.52518666
C        3.83986698      -0.45378294       3.28507741
C        4.90479931       0.10964386       2.39383186
H        4.89926170      -0.09026726       1.32719397
C        5.96735601       0.87858169       2.96295106
H        6.04751451       1.08798542       4.02134133
H        3.17018749      -1.97920526       1.90279057
H        2.08095259      -1.68444220       3.26153773
H        4.30649322      -1.16283763       3.98054087
H        3.40025549       0.35069269       3.88841523
C        7.01223106       1.42167089       2.13416264
C        7.88731392       1.87650810       1.44005233
Br       9.30224888       2.61194139       0.31773468
