85
Properties=species:S:1:pos:R:3 pbc="F F F"
C        0.00000000       0.00000000       0.00000000
C        0.85577545       0.85577545      -0.85577545
H        1.44188551       0.33579759      -1.60275315
C        0.94402349       2.26757248      -0.63921043
H        0.35398223       2.72853369       0.14528521
C        1.78658591       3.13071398      -1.51972738
C        3.20994531       2.86341113      -1.29375286
C        4.37173635       2.61554498      -1.11409856
C        5.84059363       2.25752168      -0.88264678
C        6.98320253       1.93709585      -0.69506544
C        8.36582676       1.51516304      -0.45259160
C        8.59775420       0.14314711      -0.99491254
H        9.26608618       0.01404342      -1.83914971
C        7.99967237      -1.00306602      -0.38098462
H        7.30116064      -0.93734559       0.44324932
H        1.56829560       4.18242819      -1.30260513
H        1.52552196       2.96387954      -2.57084887
H        8.59404699       1.53990550       0.61892730
H        9.05674349       2.21264521      -0.93946079
C        8.24890827      -2.32731196      -0.88877802
C        8.45764333      -3.43636795      -1.31405499
Br       8.79515028      -5.22961767      -2.00169188
C       -0.85577545      -0.85577545      -0.85577545
H       -1.14963650      -0.42593861      -1.80486113
C       -1.31502195      -2.13312953      -0.40265493
H       -1.01056089      -2.49859478       0.57192496
C       -2.15525931      -3.00428407      -1.27748388
C       -3.49119165      -2.42626236      -1.44965528
C       -4.57368838      -1.92730947      -1.60038205
C       -5.93254619      -1.25291701      -1.79529890
C       -6.98109546      -0.68658081      -1.94768755
C       -8.24474528       0.03497359      -2.12380970
C       -8.03826165       1.25802564      -2.95557784
H       -8.48453584       1.30796034      -3.94270380
C       -7.31346969       2.38218397      -2.44630525
H       -6.81964502       2.38219370      -1.48311441
H       -2.23729139      -3.99648583      -0.81955169
H       -1.66774337      -3.14353936      -2.24896764
H       -8.67120469       0.30823232      -1.15205281
H       -8.97589703      -0.61391209      -2.61904037
C       -7.14132973       3.57116698      -3.24021156
C       -6.99716252       4.56694025      -3.90510810
Br      -6.76405633       6.17702141      -4.98018957
C       -0.85577545       0.85577545       0.85577545
H       -0.81955485       1.91679146       0.64408994
C       -1.61313869       0.30156387       1.93610385
H       -1.58644730      -0.76720741       2.11799082
C       -2.49482935       1.16233606       2.77986186
C       -1.69184228       2.05981267       3.61545434
C       -1.02003695       2.80542134       4.27592161
C       -0.13828035       3.76012807       5.08235368
C        0.58039015       4.51177900       5.68397496
C        1.48303309       5.42248864       6.39412584
C        2.10166471       6.39401572       5.44346285
H        1.84168357       7.44431344       5.51664942
C        3.07244450       5.96815732       4.48187814
H        3.35077281       4.93189191       4.33944663
H       -3.11615348       0.52153052       3.41564491
H       -3.17884541       1.73655460       2.14485036
H        2.26367663       4.86005903       6.91864277
H        0.92506370       5.97644526       7.15746793
C        3.68852346       6.91260287       3.58629491
C        4.20448959       7.70357601       2.83624396
Br       5.03876319       8.98251269       1.62347500
C        0.85577545      -0.85577545       0.85577545
H        0.91495368      -1.89763568       0.56784689
C        1.49113983      -0.33303221       2.02663437
H        1.37089546       0.71437201       2.28070726
C        2.37391532      -1.19104504       2.87206690
C        1.58438441      -2.20345214       3.57927273
C        0.92615596      -3.04232041       4.13290352
C        0.06466049      -4.11498479       4.80111681
C       -0.63558549      -4.95870519       5.29224412
C       -1.51441323      -5.98178913       5.86620549
C       -1.98932062      -6.91967025       4.80546422
H       -1.65637625      -7.95159762       4.82405793
C       -2.91949896      -6.49159076       3.80549916
H       -3.26475924      -5.46966962       3.71565535
H        2.89868448      -0.55809053       3.59655390
H        3.14240387      -1.66600653       2.25183997
H       -2.37034714      -5.51698651       6.36838581
H       -0.97119402      -6.55131308       6.62873043
C       -3.39779177      -7.40652507       2.80164101
C       -3.79836199      -8.17278256       1.96090980
Br      -4.44605017      -9.41175611       0.60151855
