98
Properties=species:S:1:pos:R:3 pbc="F F F"
C        1.76567947       1.76567947      -1.76567947
H        2.35178953       1.24570161      -2.51265717
C        1.85392751       3.17747651      -1.54911446
H        1.26388625       3.63843772      -0.76461881
C        2.69648993       4.04061801      -2.42963140
C        4.11984933       3.77331515      -2.20365688
C        5.28164037       3.52544900      -2.02400259
C        6.75049766       3.16742571      -1.79255080
C        7.89310655       2.84699987      -1.60496946
C        9.27573078       2.42506707      -1.36249562
C        9.50765822       1.05305113      -1.90481657
H       10.17599020       0.92394744      -2.74905373
C        8.90957639      -0.09316199      -1.29088864
H        8.21106466      -0.02744157      -0.46665471
Br       9.22906051      -1.79065239      -1.94180580
H        2.47819962       5.09233221      -2.21250915
H        2.43542598       3.87378356      -3.48075289
H        9.50395101       2.44980952      -0.29097672
H        9.96664751       3.12254924      -1.84936482
C       -1.76567947      -1.76567947      -1.76567947
H       -2.58423936      -1.26204405      -2.26386491
C       -1.55117840      -3.17794771      -1.85139237
H       -0.73115336      -3.63079745      -1.30499196
C       -2.39838392      -4.03348411      -2.73487131
C       -3.76197280      -4.12908350      -2.20576507
C       -4.88131994      -4.17778340      -1.77198862
C       -6.30353073      -4.19729638      -1.20964705
C       -7.41567806      -4.17360262      -0.75579521
C       -8.76414737      -4.11488706      -0.18425903
C       -9.35004113      -2.75281894      -0.36266586
H      -10.19908282      -2.62481214      -1.02509641
C       -8.84622205      -1.63174400       0.37066301
H       -7.98391142      -1.68877140       1.02240503
Br      -9.59792484       0.04273672       0.17497419
H       -1.95390440      -5.03329194      -2.79584464
H       -2.40789976      -3.62884787      -3.75321480
H       -8.74399292      -4.37965928       0.87891494
H       -9.40920511      -4.84848417      -0.68087229
C       -1.76567947       1.76567947       1.76567947
H       -2.28633855       2.56689651       1.25691326
C       -1.82376921       1.57410669       3.18264258
H       -1.25574362       0.77136662       3.63983254
C       -2.70709656       2.42084167       4.03880111
C       -2.20000482       3.79463502       4.10218152
C       -1.78480355       4.92183672       4.12445170
C       -1.24678340       6.35348738       4.11020338
C       -0.81261400       7.47258469       4.05987721
C       -0.26545638       8.82932406       3.96851302
C       -0.47695433       9.38857496       2.59999663
H       -1.15597738      10.22395242       2.46906157
C        0.24585960       8.87801272       1.47514992
H        0.91322425       8.02796715       1.53553490
Br       0.00894170       9.59735264      -0.20819701
H       -2.74347569       1.99267446       5.04689083
H       -3.73215613       2.40615059       3.65165571
H        0.80223635       8.83173026       4.21524335
H       -0.76061425       9.47841894       4.69952838
C        1.76567947      -1.76567947       1.76567947
H        1.25741343      -2.28401911       2.56871578
C        3.18219611      -1.82661755       1.57170482
H        3.63896712      -1.26082288       0.76715278
C        4.03828991      -2.70996148       2.41848795
C        4.10500006      -2.20055456       3.79126675
C        4.13000085      -1.78340100       4.91769011
C        4.11923967      -1.24282597       6.34840852
C        4.07166353      -0.80659009       7.46682227
C        3.98367020      -0.25687348       8.82274979
C        2.61577471      -0.46495795       9.38479326
H        2.48511914      -1.14226991      10.22160233
C        1.49130521       0.25894337       8.87494119
H        1.55136434       0.92469598       8.02360944
Br      -0.19118121       0.02627972       9.59767486
H        5.04555376      -2.74888313       1.98860409
H        3.64930727      -3.73435808       2.40629708
H        4.23229182       0.81038314       8.82282857
H        4.71495748      -0.75217693       9.47142716
C       -0.00445707       0.01189536      -1.78238275
H       -0.66409135       0.67374010      -2.43557963
H        0.65740317      -0.63156657      -2.45157240
C       -0.90989263      -0.90692880      -0.91072765
C        0.90977584       0.90977584      -0.90977584
C       -0.00465871       1.77757030       0.00794375
H       -0.66225468       2.44313916      -0.64384735
H        0.64322798       2.43503045       0.67728295
C       -1.78241447       0.00034974      -0.00472694
H       -2.45427497      -0.65498947       0.64260836
H       -2.43311707       0.67328779      -0.65473579
C       -0.91132561       0.90220522       0.91563759
C       -0.01476271      -0.02253852       1.78660255
H       -0.67934791      -0.69751639       2.42135241
H        0.63392994       0.61504881       2.47327442
C        0.01484550      -1.77751727      -0.01636693
H        0.67870853      -2.42144646      -0.68295456
H       -0.62264859      -2.45592969       0.64226336
C        1.78714474       0.01002794       0.00389507
H        2.44202412       0.67113390       0.66197326
H        2.45385902      -0.65136977      -0.64189061
C        0.91606151      -0.90478549       0.90901405
