106
Properties=species:S:1:pos:R:3 pbc="F F F"
C        1.76567947       1.76567947      -1.76567947
H        2.35178953       1.24570161      -2.51265717
C        1.85392751       3.17747651      -1.54911446
H        1.26388625       3.63843772      -0.76461881
C        2.69648993       4.04061801      -2.42963140
C        4.11984933       3.77331515      -2.20365688
C        5.28164037       3.52544900      -2.02400259
C        6.75049766       3.16742571      -1.79255080
C        7.89310655       2.84699987      -1.60496946
C        9.27573078       2.42506707      -1.36249562
C        9.50765822       1.05305113      -1.90481657
H       10.17599020       0.92394744      -2.74905373
C        8.90957639      -0.09316199      -1.29088864
H        8.21106466      -0.02744157      -0.46665471
H        2.47819962       5.09233221      -2.21250915
H        2.43542598       3.87378356      -3.48075289
H        9.50395101       2.44980952      -0.29097672
H        9.96664751       3.12254924      -1.84936482
C        9.15881229      -1.41740794      -1.79868204
C        9.36754735      -2.52646392      -2.22395901
Br       9.70505430      -4.31971364      -2.91159591
C       -1.76567947      -1.76567947      -1.76567947
H       -1.62776968      -1.64931124      -2.83306740
C       -2.75734823      -2.62638410      -1.19678615
H       -2.86899317      -2.67860299      -0.11934662
C       -3.59987192      -3.50685486      -2.06001257
C       -4.54183031      -2.70684138      -2.84814967
C       -5.29109841      -2.03528067      -3.50471289
C       -6.21274305      -1.15131389      -4.34641723
C       -6.90673722      -0.42878907      -5.00954960
C       -7.73087667       0.47964106      -5.81205786
C       -6.88745665       1.21960106      -6.79767033
H       -7.01403433       1.02137017      -7.85632721
C       -5.96210938       2.22377144      -6.36896510
H       -5.76865460       2.44575825      -5.32738145
H       -4.15157382      -4.20789756      -1.42356961
H       -2.96305326      -4.10991364      -2.71699553
H       -8.26447595       1.18701557      -5.16727687
H       -8.49309494      -0.09225053      -6.35321610
C       -5.17157725       2.95583286      -7.32434200
C       -4.50950659       3.56893430      -8.12447016
Br      -3.43899433       4.56026748      -9.41820971
C       -1.76567947       1.76567947       1.76567947
H       -1.46709041       2.80359998       1.83945793
C       -2.86516341       1.21655868       2.49879639
H       -3.09820691       0.16138277       2.40735310
C       -3.74146581       2.08597987       3.33929367
C       -3.01277154       2.56773130       4.51631853
C       -2.39444556       2.97348760       5.46315881
C       -1.57242361       3.49541604       6.64263452
C       -0.89369532       3.90680099       7.54457958
C       -0.03640494       4.40094711       8.62594142
C        0.98202991       5.35446311       8.09309272
H        0.92623358       6.40013920       8.37508575
C        2.05886065       4.89797691       7.26818678
H        2.15225499       3.87474362       6.92778917
H       -4.61742219       1.50900285       3.65661595
H       -4.11529804       2.92830893       2.74635546
H        0.45910549       3.56743480       9.13640794
H       -0.64686766       4.91427447       9.37741943
C        3.05562781       5.81553179       6.78018241
C        3.89042031       6.58398400       6.37147875
Br       5.24020918       7.82650624       5.71063950
C        1.76567947      -1.76567947       1.76567947
H        1.43413195      -2.78902569       1.88699067
C        2.90915634      -1.23131396       2.44004817
H        3.17520380      -0.18899233       2.30274665
C        3.78441144      -2.10198494       3.28034296
C        3.08219471      -2.51616460       4.49846206
C        2.48457669      -2.86638691       5.48012837
C        1.68784385      -3.31725694       6.70537338
C        1.02809140      -3.67248804       7.64449645
C        0.19357371      -4.09774500       8.77197476
C       -0.87578167      -5.03196987       8.30933772
H       -0.84617696      -6.06857085       8.62659749
C       -1.96506991      -4.56597729       7.50639566
H       -2.03510119      -3.55246554       7.13291344
H        4.69067297      -1.54618437       3.54618364
H        4.10728416      -2.97724376       2.70543452
H       -0.25409291      -3.22978116       9.26904900
H        0.81246785      -4.60630505       9.51978867
C       -3.00992753      -5.46350943       7.08650449
C       -3.88499579      -6.21519260       6.73484563
Br      -5.29990716      -7.43060071       6.16624301
C       -0.00445707       0.01189536      -1.78238275
H       -0.66409135       0.67374010      -2.43557963
H        0.65740317      -0.63156657      -2.45157240
C       -0.90989263      -0.90692880      -0.91072765
C        0.90977584       0.90977584      -0.90977584
C       -0.00465871       1.77757030       0.00794375
H       -0.66225468       2.44313916      -0.64384735
H        0.64322798       2.43503045       0.67728295
C       -1.78241447       0.00034974      -0.00472694
H       -2.45427497      -0.65498947       0.64260836
H       -2.43311707       0.67328779      -0.65473579
C       -0.91132561       0.90220522       0.91563759
C       -0.01476271      -0.02253852       1.78660255
H       -0.67934791      -0.69751639       2.42135241
H        0.63392994       0.61504881       2.47327442
C        0.01484550      -1.77751727      -0.01636693
H        0.67870853      -2.42144646      -0.68295456
H       -0.62264859      -2.45592969       0.64226336
C        1.78714474       0.01002794       0.00389507
H        2.44202412       0.67113390       0.66197326
H        2.45385902      -0.65136977      -0.64189061
C        0.91606151      -0.90478549       0.90901405
