82
Properties=species:S:1:pos:R:3 pbc="F F F"
C        1.82352258       1.82352258      -1.82352258
C        3.15427774       1.16089259      -1.96315221
C        4.35736459       1.61853898      -1.58301023
C        4.62519228       2.86455883      -0.90499468
C        5.87082536       3.31434001      -0.68556221
C        6.17995695       4.59012140       0.02370069
Br       6.97030005       5.81887730      -1.25605519
H        1.84985691       2.80631060      -1.35309910
H        1.32684412       1.90296488      -2.79285592
H        3.13293213       0.19497960      -2.46813931
H        5.22373460       0.99412509      -1.80393236
H        3.78162326       3.45670455      -0.56022078
H        6.72781811       2.73473741      -1.02348179
H        6.91230704       4.43334220       0.82048322
H        5.29409338       5.08352027       0.43398308
C       -1.82352258      -1.82352258      -1.82352258
C       -1.20580458      -3.18120950      -1.89130846
C       -0.75127184      -3.83730229      -2.97033968
C       -0.72577264      -3.34265542      -4.32631774
C       -0.38558104      -4.11457625      -5.37057029
C       -0.33649898      -3.62924497      -6.78063371
Br      -1.74107752      -4.52502124      -7.77913377
H       -1.91254990      -1.31390757      -2.78280915
H       -2.80586120      -1.86827170      -1.34853201
H       -1.15173241      -3.70665509      -0.93766354
H       -0.36076909      -4.84393861      -2.81708434
H       -0.99237756      -2.30387376      -4.50229725
H       -0.11541236      -5.15712304      -5.21350191
H        0.61495272      -3.88506459      -7.25505414
H       -0.51421697      -2.55408133      -6.87533227
C       -1.82352258       1.82352258       1.82352258
C       -3.13277036       1.13141067       2.01414151
C       -4.35647557       1.54862976       1.65380847
C       -4.67340694       2.76957053       0.95176832
C       -5.93537914       3.18201075       0.75333768
C       -6.29514371       4.43084576       0.02038819
Br      -7.08448769       5.67196319       1.28878165
H       -1.88708636       2.79285068       1.32932957
H       -1.30480300       1.94047341       2.77738850
H       -3.07375747       0.17971411       2.54257946
H       -5.20058048       0.90850764       1.91270392
H       -3.85437414       3.37367063       0.57050381
H       -6.76832372       2.58993033       1.12778326
H       -7.04303635       4.23513077      -0.75300110
H       -5.43294231       4.93563590      -0.42494764
C        1.82352258      -1.82352258       1.82352258
C        1.39902637      -3.24278752       1.63650864
C        0.91203227      -4.09476952       2.55211202
C        0.65086864      -3.80240584       3.94147132
C        0.29674972      -4.74924459       4.82473327
C        0.00707952      -4.47652766       6.26277048
Br       1.39009499      -5.32420611       7.33093143
H        1.72151996      -1.44666091       2.84108574
H        2.85325856      -1.68005016       1.48935619
H        1.53690024      -3.63169845       0.62745235
H        0.68861471      -5.11018222       2.22299512
H        0.74525755      -2.77383010       4.27946093
H        0.19706454      -5.78461349       4.50435928
H       -0.95002465      -4.91141222       6.56377845
H        0.01902158      -3.41171578       6.51289321
C       -0.00445707       0.01189536      -1.78238275
H       -0.66409135       0.67374010      -2.43557963
H        0.65740317      -0.63156657      -2.45157240
C       -0.90989263      -0.90692880      -0.91072765
C        0.90977584       0.90977584      -0.90977584
C       -0.00465871       1.77757030       0.00794375
H       -0.66225468       2.44313916      -0.64384735
H        0.64322798       2.43503045       0.67728295
C       -1.78241447       0.00034974      -0.00472694
H       -2.45427497      -0.65498947       0.64260836
H       -2.43311707       0.67328779      -0.65473579
C       -0.91132561       0.90220522       0.91563759
C       -0.01476271      -0.02253852       1.78660255
H       -0.67934791      -0.69751639       2.42135241
H        0.63392994       0.61504881       2.47327442
C        0.01484550      -1.77751727      -0.01636693
H        0.67870853      -2.42144646      -0.68295456
H       -0.62264859      -2.45592969       0.64226336
C        1.78714474       0.01002794       0.00389507
H        2.44202412       0.67113390       0.66197326
H        2.45385902      -0.65136977      -0.64189061
C        0.91606151      -0.90478549       0.90901405
