90
Properties=species:S:1:pos:R:3 pbc="F F F"
C        1.82352258       1.82352258      -1.82352258
C        3.15427774       1.16089259      -1.96315221
C        4.35736459       1.61853898      -1.58301023
C        4.62519228       2.86455883      -0.90499468
C        5.87082536       3.31434001      -0.68556221
C        6.17995695       4.59012140       0.02370069
H        1.84985691       2.80631060      -1.35309910
H        1.32684412       1.90296488      -2.79285592
H        3.13293213       0.19497960      -2.46813931
H        5.22373460       0.99412509      -1.80393236
H        3.78162326       3.45670455      -0.56022078
H        6.72781811       2.73473741      -1.02348179
H        6.91230704       4.43334220       0.82048322
H        5.29409338       5.08352027       0.43398308
C        6.76592973       5.50114031      -0.92513040
C        7.25668193       6.26411865      -1.71977645
Br       8.05018674       7.49779008      -3.00465189
C       -1.82352258      -1.82352258      -1.82352258
C       -1.21062658      -3.18373965      -1.88395631
C       -0.75453717      -3.84553862      -2.95883802
C       -0.72215263      -3.35605241      -4.31654076
C       -0.38096418      -4.13312305      -5.35664035
C       -0.32483082      -3.65324174      -6.76830509
H       -1.90708164      -1.31716272      -2.78502225
H       -2.80778009      -1.86284755      -1.35203728
H       -1.16206028      -3.70582099      -0.92816977
H       -0.36836515      -4.85304071      -2.80038618
H       -0.98422414      -2.31695075      -4.49737370
H       -0.11527272      -5.17607360      -5.19469100
H        0.62741668      -3.91436442      -7.23821828
H       -0.49818302      -2.57778574      -6.86766181
C       -1.36591907      -4.31626629      -7.51001508
C       -2.23783048      -4.87154935      -8.13119719
Br      -3.64763749      -5.76939510      -9.13559613
C       -1.82352258       1.82352258       1.82352258
C       -2.98899059       1.00937503       2.27995692
C       -4.29412723       1.21810373       2.04668284
C       -4.86345796       2.27988904       1.25139879
C       -6.18560541       2.50197701       1.18314517
C       -6.80473816       3.58155276       0.36008673
H       -2.08301173       2.69850163       1.22775326
H       -1.21306499       2.13630190       2.67329803
H       -2.73223939       0.15597170       2.90783995
H       -5.00155007       0.52183310       2.49840887
H       -4.19065112       2.92048562       0.68741184
H       -6.87460751       1.87051909       1.74091070
H       -7.60706793       3.18858275      -0.27048466
H       -6.08344105       4.12088888      -0.26069936
C       -7.39337774       4.54577239       1.25305032
C       -7.88636338       5.35330633       2.00090732
Br      -8.68347947       6.65902041       3.21012883
C        1.82352258      -1.82352258       1.82352258
C        1.41451831      -3.24490531       1.61889891
C        0.92704034      -4.11027274       2.52160073
C        0.64983163      -3.83380816       3.91110600
C        0.29643872      -4.79244463       4.78184423
C       -0.00954906      -4.53636574       6.21956098
H        1.70819308      -1.45746874       2.84360480
H        2.85496982      -1.66702218       1.50067292
H        1.56575066      -3.62274706       0.60755332
H        0.71656227      -5.12455362       2.18067616
H        0.73108150      -2.80768173       4.25978535
H        0.20979046      -5.82558378       4.45066307
H       -0.96524826      -4.98323932       6.50717497
H       -0.01024928      -3.47394671       6.47993314
C        1.01424450      -5.16263607       7.01531988
C        1.87167160      -5.68713746       7.68176796
Br       3.25805871      -6.53521186       8.75935814
C       -0.00445707       0.01189536      -1.78238275
H       -0.66409135       0.67374010      -2.43557963
H        0.65740317      -0.63156657      -2.45157240
C       -0.90989263      -0.90692880      -0.91072765
C        0.90977584       0.90977584      -0.90977584
C       -0.00465871       1.77757030       0.00794375
H       -0.66225468       2.44313916      -0.64384735
H        0.64322798       2.43503045       0.67728295
C       -1.78241447       0.00034974      -0.00472694
H       -2.45427497      -0.65498947       0.64260836
H       -2.43311707       0.67328779      -0.65473579
C       -0.91132561       0.90220522       0.91563759
C       -0.01476271      -0.02253852       1.78660255
H       -0.67934791      -0.69751639       2.42135241
H        0.63392994       0.61504881       2.47327442
C        0.01484550      -1.77751727      -0.01636693
H        0.67870853      -2.42144646      -0.68295456
H       -0.62264859      -2.45592969       0.64226336
C        1.78714474       0.01002794       0.00389507
H        2.44202412       0.67113390       0.66197326
H        2.45385902      -0.65136977      -0.64189061
C        0.91606151      -0.90478549       0.90901405
