69
Properties=species:S:1:pos:R:3 pbc="F F F"
C        0.00000000       0.00000000       0.00000000
C        0.91361855       0.91361855      -0.91361855
C        2.24437371       0.25098857      -1.05324818
C        3.44746057       0.70863496      -0.67310621
C        3.71528826       1.95465481       0.00490934
C        4.96092134       2.40443598       0.22434182
C        5.27005293       3.68021738       0.93360472
H        0.93995289       1.89640658      -0.44319508
H        0.41694010       0.99306085      -1.88295189
H        2.22302810      -0.71492442      -1.55823528
H        4.31383057       0.08422106      -0.89402834
H        2.87171923       2.54680053       0.34968325
H        5.81791409       1.82483338      -0.11357777
H        6.00240302       3.52343818       1.73038724
H        4.38418935       4.17361625       1.34388710
C        5.85602571       4.59123629      -0.01522638
C        6.34677791       5.35421462      -0.80987242
Br       7.14028272       6.58788606      -2.09474787
C       -0.91361855      -0.91361855      -0.91361855
C       -1.77767805      -1.74607654      -0.02485587
C       -1.82381216      -3.08347715       0.07808759
C       -0.99927983      -4.02711372      -0.63864018
C       -1.20419482      -5.35266883      -0.58415185
C       -0.36157514      -6.35322673      -1.30186372
H       -0.24148047      -1.48010529      -1.55796877
H       -1.52040003      -0.24482152      -1.52773129
H       -2.47699140      -1.18121662       0.59186906
H       -2.55300646      -3.50804210       0.76896859
H       -0.18177933      -3.64364004      -1.24341714
H       -2.01785821      -5.75491259       0.01644556
H       -0.02417618      -7.14452941      -0.62674836
H        0.50235445      -5.91038247      -1.80589048
C       -1.16925189      -6.97292942      -2.32030706
C       -1.84568116      -7.49193043      -3.17325336
Br      -2.93941009      -8.33111116      -4.55239539
C       -0.91361855       0.91361855       0.91361855
C       -2.11335007       0.12042603       1.31483436
C       -3.40518854       0.37215069       1.05186251
C       -3.92258561       1.47094308       0.27150504
C       -5.23570438       1.73197468       0.17333645
C       -5.80159518       2.85070767      -0.63563726
H       -1.13215182       1.81155441       0.33584831
H       -0.31900136       1.18567758       1.78827390
H       -1.89786617      -0.75675349       1.92522629
H       -4.14386647      -0.31603020       1.46424370
H       -3.21685987       2.10754376      -0.25556711
H       -5.95718724       1.10513228       0.69400572
H       -6.59630842       2.49791926      -1.29877373
H       -5.04859089       3.38631629      -1.22098869
C       -6.38851755       3.80629939       0.26767143
C       -6.88006504       4.60660746       1.02419246
Br      -7.67485575       5.90063791       2.24742298
C        0.91361855      -0.91361855       0.91361855
C        0.07279551      -2.02391129       1.45190366
C       -0.21176861      -2.30872714       2.73224320
C        0.21304014      -1.56054340       3.89145019
C        0.00415004      -1.99126112       5.14560435
C        0.41870599      -1.23487510       6.36308450
H        1.34761161      -0.26097770       1.67096523
H        1.71061054      -1.30470048       0.27764183
H       -0.32991689      -2.69936367       0.69689219
H       -0.82376689      -3.19045787       2.92538899
H        0.72030976      -0.61196474       3.73656201
H       -0.50238295      -2.93865640       5.32005179
H       -0.41002884      -1.13587428       7.06960851
H        0.82842780      -0.24548535       6.14000535
C        1.45890673      -1.98067306       7.02290858
C        2.33007485      -2.60527886       7.57551125
Br       3.73868001      -3.61521360       8.46902302
