77
Properties=species:S:1:pos:R:3 pbc="F F F"
C        0.00000000       0.00000000       0.00000000
C        0.91427636       0.91427636      -0.91427636
C        0.05027473       1.97267074      -1.51741471
C        0.17418226       3.30005604      -1.36461633
C        1.16803045       3.90596085      -0.57594802
C        2.00929957       4.41884327       0.09165030
C        2.97627711       5.00837789       0.85900523
C        3.81754623       5.52126031       1.52660356
C        4.81138603       6.12715546       2.31527790
C        4.93190885       7.46076255       2.39334476
C        5.95863696       8.15303537       3.22338143
Br       7.10749040       9.17848733       2.03716147
H        1.33912187       0.26871763      -1.68586290
H        1.71400551       1.29178668      -0.27516135
H       -0.75338504       1.61532298      -2.16052967
H       -0.52823093       3.95724402      -1.87147696
H        5.48801960       5.47607588       2.86182900
H        4.24073888       8.09683257       1.84166210
H        6.60564025       7.46595213       3.77349415
H        5.49740746       8.85850749       3.91718552
C       -0.91427636      -0.91427636      -0.91427636
C       -2.30910759      -0.84642431      -0.38482828
C       -3.39838184      -0.40686200      -1.03361080
C       -3.37830680       0.08061858      -2.35225109
C       -3.36130877       0.49326708      -3.46845086
C       -3.34178315       0.96757946      -4.75144608
C       -3.32478512       1.38022797      -5.86764584
C       -3.30470145       1.86771451      -7.18627666
C       -4.42845485       2.24379283      -7.81466462
C       -4.46090585       2.77847769      -9.20586274
Br      -5.51414983       1.56385677     -10.29852319
H       -0.51828195      -1.92969488      -0.84572557
H       -0.79866142      -0.54706597      -1.93522615
H       -2.44517555      -1.21039144       0.63309939
H       -4.35795823      -0.42002561      -0.52250622
H       -2.34245421       1.92743310      -7.68724537
H       -5.38312965       2.18101135      -7.29379105
H       -3.47315325       2.84298321      -9.66792819
H       -4.94893760       3.75426155      -9.24405338
C       -0.91427636       0.91427636       0.91427636
C       -2.17471471       1.19984641       0.16579906
C       -3.42390330       0.87883731       0.53611403
C       -3.73447188       0.19230789       1.72315954
C       -3.99735762      -0.38883178       2.72796670
C       -4.29953903      -1.05681079       3.88292153
C       -4.56242476      -1.63795046       4.88772868
C       -4.87298412      -2.32448578       6.07476525
C       -6.14152650      -2.57416239       6.43196254
C       -6.52437830      -3.30795031       7.67186292
Br      -7.55938859      -2.10471271       8.79414037
H       -0.35550163       1.83289769       1.10530308
H       -1.05618404       0.37349468       1.85127483
H       -2.05371096       1.74091570      -0.77215905
H       -4.25338153       1.15670575      -0.10959722
H       -4.04641564      -2.64633328       6.70218413
H       -6.95646580      -2.24761792       5.78706147
H       -5.66643374      -3.63309847       8.26476296
H       -7.16015295      -4.16573820       7.44431468
C        0.91427636      -0.91427636       0.91427636
C        0.13204703      -2.13471965       1.27359350
C        0.44481560      -3.40764676       0.98639228
C        1.59338102      -3.78694991       0.26960839
C        2.56561546      -4.10801820      -0.33714112
C        3.68312980      -4.47707633      -1.03455637
C        4.65536425      -4.79814462      -1.64130588
C        5.80392085      -5.17743844      -2.35809570
C        6.10555985      -6.46663067      -2.57286388
C        7.30253491      -6.92180035      -3.33604436
Br       8.43098706      -7.95400950      -2.13618031
H        1.15955253      -0.33028109       1.80386878
H        1.82466510      -1.11053849       0.34574995
H       -0.78004298      -1.95928695       1.84322363
H       -0.21953646      -4.20183355       1.31819296
H        6.44825529      -4.38705888      -2.73304768
H        5.44436180      -7.24457349      -2.19302594
H        7.91340492      -6.09891490      -3.71422160
H        7.02028581      -7.57913215      -4.16068853
