85
Properties=species:S:1:pos:R:3 pbc="F F F"
C        0.00000000       0.00000000       0.00000000
C        0.91427636       0.91427636      -0.91427636
C        0.05027473       1.97267074      -1.51741471
C        0.17418226       3.30005604      -1.36461633
C        1.16803045       3.90596085      -0.57594802
C        2.00929957       4.41884327       0.09165030
C        2.97627711       5.00837789       0.85900523
C        3.81754623       5.52126031       1.52660356
C        4.81138603       6.12715546       2.31527790
C        4.93190885       7.46076255       2.39334476
C        5.95863696       8.15303537       3.22338143
H        1.33912187       0.26871763      -1.68586290
H        1.71400551       1.29178668      -0.27516135
H       -0.75338504       1.61532298      -2.16052967
H       -0.52823093       3.95724402      -1.87147696
H        5.48801960       5.47607588       2.86182900
H        4.24073888       8.09683257       1.84166210
H        6.60564025       7.46595213       3.77349415
H        5.49740746       8.85850749       3.91718552
C        6.80970733       8.91268995       2.34462996
C        7.52247876       9.54890065       1.60867559
Br       8.67496988      10.57759956       0.41869964
C       -0.91427636      -0.91427636      -0.91427636
C       -2.16100719      -0.15337183      -1.22598116
C       -2.60501581       0.20628914      -2.44012797
C       -1.92762103      -0.08506908      -3.63724921
C       -1.35421382      -0.33169328      -4.65058543
C       -0.69513086      -0.61516610      -5.81535280
C       -0.12172365      -0.86179031      -6.82868903
C        0.55567813      -1.15314160      -8.02580012
C        0.04520555      -0.82307303      -9.22145916
C        0.72739342      -1.09740875     -10.51827557
H       -1.13872146      -1.81536995      -0.33961099
H       -0.31496082      -1.17928207      -1.78671066
H       -2.77408523       0.11906794      -0.36745032
H       -3.53920538       0.75706911      -2.51835378
H        1.51267750      -1.66231187      -7.95263211
H       -0.91351758      -0.30852633      -9.27386545
H        1.69510646      -1.59079271     -10.40241199
H        0.84841569      -0.18374863     -11.10339648
C       -0.10494389      -1.98826631     -11.28455712
C       -0.80202638      -2.73435951     -11.92631793
Br      -1.92914981      -3.94072912     -12.96399087
C       -0.91427636       0.91427636       0.91427636
C       -0.86507513       2.30448656       0.37079849
C       -1.89730631       3.02910060      -0.08755227
C       -3.22200977       2.56002819      -0.13209865
C       -4.34334197       2.16296209      -0.16981152
C       -5.63224062       1.70657295      -0.21316381
C       -6.75357282       1.30950684      -0.25087667
C       -8.07826624       0.84042681      -0.29542947
C       -9.08759892       1.62092265      -0.70919493
C      -10.50619421       1.16941748      -0.78732079
H       -0.49770485       0.87308021       1.92291734
H       -1.90710558       0.46169002       0.91215794
H        0.11798866       2.77430281       0.36615345
H       -1.71396145       4.03736508      -0.45083647
H       -8.26209111      -0.18216218       0.02233756
H       -8.88236343       2.64200291      -1.02845698
H      -10.64738067       0.13070143      -0.47998387
H      -10.91364446       1.31473102      -1.78964606
C      -11.28604861       1.97937655       0.11234215
C      -11.93917668       2.65771727       0.86580987
Br     -12.99522951       3.75453685       2.08410344
C        0.91427636      -0.91427636       0.91427636
C        0.65151870      -0.55018206       2.33865942
C        0.18039418      -1.35462311       3.30383735
C       -0.15525574      -2.70474377       3.10045129
C       -0.43938239      -3.84759111       2.92828383
C       -0.76596892      -5.16121738       2.73040131
C       -1.05009557      -6.30406472       2.55823384
C       -1.38575157      -7.65417564       2.35483952
C       -1.79972327      -8.43596031       3.36308961
C       -2.17929167      -9.86825967       3.19932290
H        1.95015105      -0.70288860       0.64066275
H        0.67438188      -1.94762373       0.65894793
H        0.88651861       0.47761462       2.61356362
H        0.04272125      -0.95297530       4.30479351
H       -1.29497199      -8.05009903       1.34713944
H       -1.88890784      -8.01921756       4.36559963
H       -2.09499392     -10.22338208       2.16971006
H       -3.18837330     -10.05579576       3.57130697
C       -1.27760755     -10.66558784       3.98978703
C       -0.52244711     -11.33335019       4.65180074
Br       0.69858347     -12.41306542       5.72222091
