85
Properties=species:S:1:pos:R:3 pbc="F F F"
C        0.00000000       0.00000000       0.00000000
C        0.87818077       0.87818077      -0.87818077
C        1.31584363       0.42953683      -2.11690894
C        2.11252762       1.26738192      -2.89719428
C        2.44321768       2.53102278      -2.41325414
S        3.44459312       3.60180924      -3.43654734
S        2.75806369       5.48353697      -2.95964797
C        1.11482915       5.50587645      -3.66297091
C        0.11757580       6.21938420      -3.00259066
C       -1.17201468       6.23346239      -3.53402198
C       -1.42350394       5.53758418      -4.70882760
Br      -3.14960619       5.51717876      -5.46368491
C       -0.37604376       4.85882945      -5.30942452
N        0.88464154       4.83014471      -4.81533099
N        2.03142335       2.97676654      -1.20120642
C        1.25842501       2.14406712      -0.46416003
H        1.04442359      -0.55555365      -2.48504012
H        2.45700253       0.93718464      -3.87228436
H        0.33141053       6.75083345      -2.08029219
H       -1.96056271       6.78104558      -3.02623742
H       -0.51583936       4.29973038      -6.23020128
H        0.94688609       2.54463740       0.49620698
C       -0.87818077      -0.87818077      -0.87818077
C       -0.36901050      -2.02911274      -1.46416616
C       -1.20791493      -2.81331302      -2.25587588
C       -2.53286006      -2.42156633      -2.43306820
S       -3.60125926      -3.45107439      -3.43061605
S       -5.44528654      -3.20882382      -2.54713828
C       -5.25705397      -4.04706351      -0.97955902
C       -5.92884257      -3.54144711       0.13073903
C       -5.77942170      -4.17860198       1.36255400
C       -4.96692578      -5.30138760       1.44540554
Br      -4.72431908      -6.19380376       3.08686535
C       -4.33927149      -5.74665760       0.29371886
N       -4.46839684      -5.14763885      -0.91408155
N       -3.03928639      -1.29466169      -1.87544823
C       -2.20402608      -0.55184199      -1.11078409
H        0.66435540      -2.32659161      -1.31167385
H       -0.82989014      -3.72140847      -2.71517291
H       -6.55346908      -2.65723978       0.04817269
H       -6.29293468      -3.79155253       2.23776692
H       -3.69415091      -6.62057751       0.30063612
H       -2.65366504       0.33794392      -0.67959539
C       -0.87818077       0.87818077       0.87818077
C       -1.18214376       0.50096746       2.17917818
C       -1.98345719       1.33720568       2.95644096
C       -2.45271216       2.52800757       2.40677487
S       -3.45813011       3.60015998       3.42465961
S       -2.96683991       5.48298740       2.75142133
C       -1.28235895       5.68779230       3.31352525
C       -0.40018074       6.41824888       2.52112104
C        0.92050457       6.57385764       2.94211661
C        1.31683709       5.99803888       4.14170606
Br       3.09109282       6.17089711       4.75145319
C        0.37737049       5.29338923       4.87619148
N       -0.91055506       5.12853045       4.49103173
N       -2.17219073       2.90256820       1.13463738
C       -1.39155384       2.07319978       0.40189854
H       -0.80348236      -0.42705643       2.59748413
H       -2.22457567       1.06309527       3.97880060
H       -0.72640201       6.85429176       1.58184240
H        1.62051815       7.13613013       2.33110831
H        0.63217556       4.82412292       5.82214493
H       -1.18783236       2.41595055      -0.60846640
C        0.87818077      -0.87818077       0.87818077
C        0.43629804      -2.12420453       1.30178683
C        1.27400313      -2.90414960       2.09895109
C        2.53076608      -2.41252795       2.44420056
S        3.60173104      -3.43524392       3.44597473
S        5.48503385      -2.93702851       2.77918627
C        5.52688326      -3.62637415       1.13041909
C        6.24308978      -2.95178123       0.14467965
C        6.27230768      -3.47227340      -1.14911139
C        5.58838914      -4.65066590      -1.41614720
Br       5.58861495      -5.39120380      -3.14856126
C        4.90601682      -5.26561130      -0.37941790
N        4.86274540      -4.78233372       0.88503812
N        2.96975742      -1.19342320       2.04621569
C        2.13736283      -0.45686949       1.27241985
H       -0.54339403      -2.49821063       1.01909346
H        0.94912682      -3.88479177       2.43255295
H        6.76501492      -2.02692723       0.37059402
H        6.82214635      -2.95338729      -1.92881335
H        4.35581695      -6.18979225      -0.53151689
H        2.53245722       0.50935885       0.97221814
