114
Properties=species:S:1:pos:R:3 pbc="F F F"
C        1.78808480       1.78808480      -1.78808480
C        2.22574765       1.33944085      -3.02681297
C        3.02243165       2.17728595      -3.80709830
C        3.35312170       3.44092680      -3.32315816
S        4.35449714       4.51171327      -4.34645136
S        3.66796772       6.39344100      -3.86955199
C        2.02473317       6.41578047      -4.57287493
C        1.02747982       7.12928822      -3.91249469
C       -0.26211066       7.14336641      -4.44392600
C       -0.51359991       6.44748820      -5.61873162
C        0.53386027       5.76873348      -6.21932855
N        1.79454556       5.74004874      -5.72523501
N        2.94132738       3.88667056      -2.11111044
C        2.16832903       3.05397114      -1.37406406
H        1.95432761       0.35435038      -3.39494415
H        3.36690656       1.84708867      -4.78218838
H        1.24131455       7.66073748      -2.99019621
H       -1.05065869       7.69094961      -3.93614144
H        0.39406467       5.20963440      -7.14010530
H        1.85679011       3.45454143      -0.41369704
C       -1.83287677       6.43189214      -6.19567646
C       -2.93777113       6.41883044      -6.67886776
Br      -4.72429188       6.39771078      -7.46014722
C       -1.78808480      -1.78808480      -1.78808480
C       -1.30412832      -2.98164890      -2.30622425
C       -2.14264372      -3.76398419      -3.10018798
C       -3.44212282      -3.32751968      -3.34756417
S       -4.51172918      -4.35415654      -4.34677605
S       -6.37782013      -4.00234863      -3.55079195
C       -6.28698435      -4.78174706      -1.94465717
C       -6.98088323      -4.20424192      -0.88413758
C       -6.90710754      -4.79525439       0.37718017
C       -6.14576603      -5.94507463       0.53822075
C       -5.49178202      -6.46229209      -0.56784819
N       -5.54783097      -5.90916520      -1.80283314
N       -3.92320698      -2.15922757      -2.85667383
C       -3.08896824      -1.41918009      -2.08821591
H       -0.29085902      -3.31342567      -2.09933744
H       -1.78459505      -4.70464702      -3.50694154
H       -7.56456117      -3.30006766      -1.02761942
H       -7.43855276      -4.35215625       1.21427665
H       -4.88420834      -7.36014532      -0.49945071
H       -3.51815330      -0.49511234      -1.71176294
C       -6.03881106      -6.58142945       1.82554868
C       -5.94923628      -7.11437660       2.90368581
Br      -5.80440143      -7.97610708       4.64694238
C       -1.78808480       1.78808480       1.78808480
C       -2.58606940       1.22896658       2.77696550
C       -3.37098476       2.06797221       3.56785893
C       -3.32921444       3.44244483       3.34554739
S       -4.32257504       4.50572856       4.38435817
S       -3.19597141       6.22460512       4.51038418
C       -1.79493280       5.71947730       5.49897848
C       -0.55161132       6.28686832       5.23078309
C        0.55214699       5.89107918       5.98624956
C        0.37842625       4.94427473       6.98677143
C       -0.89180036       4.43336558       7.19675636
N       -1.97973471       4.80122294       6.47887166
N       -2.56278214       3.99988402       2.37644223
C       -1.80975713       3.16317949       1.62342761
H       -2.60347884       0.15596619       2.94417710
H       -3.99471432       1.64970490       4.35176439
H       -0.43368006       7.01993568       4.43863251
H        1.52866318       6.32117277       5.78392277
H       -1.08514255       3.69193189       7.96672994
H       -1.20747260       3.65350469       0.86405130
C        1.49392568       4.50446022       7.78415729
C        2.42815646       4.13611557       8.45196795
Br       3.93872860       3.54053342       9.53176131
C        1.78808480      -1.78808480       1.78808480
C        1.57335114      -3.15770459       1.86094574
C        2.40530434      -3.93091380       2.67059776
C        3.42955729      -3.30782274       3.37982664
S        4.50225341      -4.31680672       4.39360163
S        6.31094573      -3.33928600       4.28072898
C        6.81415665      -3.61196326       2.58726866
C        7.52614457      -2.60865450       1.93446366
C        7.91286512      -2.80376416       0.60855247
C        7.57911270      -3.99507441      -0.02156720
C        6.87633597      -4.94682489       0.69876144
N        6.49015247      -4.78314595       1.98653090
N        3.64296401      -1.97033967       3.32580470
C        2.82171770      -1.24297337       2.53167316
H        0.77529974      -3.63149488       1.29682751
H        2.25814116      -5.00464221       2.73340023
H        7.77088156      -1.68015605       2.44121064
H        8.46348132      -2.02730039       0.08565065
H        6.59076866      -5.89684811       0.25618760
H        3.03310700      -0.17769022       2.51423136
C        7.95412785      -4.23209003      -1.39152604
C        8.26820303      -4.43059061      -2.53886658
Br       8.77603604      -4.75154927      -4.39401918
C       -0.00445707       0.01189536      -1.78238275
H       -0.66409135       0.67374010      -2.43557963
H        0.65740317      -0.63156657      -2.45157240
C       -0.90989263      -0.90692880      -0.91072765
C        0.90977584       0.90977584      -0.90977584
C       -0.00465871       1.77757030       0.00794375
H       -0.66225468       2.44313916      -0.64384735
H        0.64322798       2.43503045       0.67728295
C       -1.78241447       0.00034974      -0.00472694
H       -2.45427497      -0.65498947       0.64260836
H       -2.43311707       0.67328779      -0.65473579
C       -0.91132561       0.90220522       0.91563759
C       -0.01476271      -0.02253852       1.78660255
H       -0.67934791      -0.69751639       2.42135241
H        0.63392994       0.61504881       2.47327442
C        0.01484550      -1.77751727      -0.01636693
H        0.67870853      -2.42144646      -0.68295456
H       -0.62264859      -2.45592969       0.64226336
C        1.78714474       0.01002794       0.00389507
H        2.44202412       0.67113390       0.66197326
H        2.45385902      -0.65136977      -0.64189061
C        0.91606151      -0.90478549       0.90901405
