165
Properties=species:S:1:pos:R:3 pbc="F F F"
C        0.00000000       0.00000000       0.00000000
C        0.87844169       0.87844169      -0.87844169
C        1.01486501       2.23457969      -0.61416407
C        1.84417459       3.00336209      -1.43099899
C        2.51705108       2.38479938      -2.48182897
N        2.37224020       1.06736700      -2.76720877
C        1.56366652       0.34460180      -1.95722394
S        3.65254947       3.28452588      -3.52238706
S        5.05069036       3.95664259      -2.16312104
C        5.76825277       2.41791460      -1.62617596
C        6.71789817       1.76120000      -2.39521953
C        7.19748121       0.52494692      -1.95623186
C        6.72858687      -0.03899477      -0.76084396
C        5.79012724       0.72098418      -0.06131979
N        5.30797049       1.92419424      -0.45529358
C        7.19181259      -1.34567988      -0.27007954
C        6.31947505      -2.27750522       0.30532008
C        6.79760524      -3.50338781       0.77763438
C        8.15265301      -3.78698544       0.68039794
N        9.01969187      -2.91860452       0.10932986
C        8.52726573      -1.73829578      -0.33929943
S        8.87677347      -5.32228392       1.22998210
S        7.79001628      -5.87421565       2.88814404
C        8.44615243      -4.78270833       4.13084548
C        9.54519390      -5.16402779       4.89479883
C       10.01257641      -4.29529063       5.88123593
C        9.36836259      -3.07947515       6.06965658
C        8.28076765      -2.77753557       5.26599969
N        7.80183545      -3.60395825       4.30529533
Br       9.95676289      -1.87413581       7.39354757
H        0.49944973       2.69819014       0.22123235
H        1.97578872       4.06143351      -1.22884736
H        1.48966492      -0.70829875      -2.21242005
H        7.06746422       2.18223672      -3.33039613
H        7.92092786      -0.00171747      -2.57571960
H        5.38079102       0.37706284       0.88528432
H        5.25439139      -2.07110773       0.38566946
H        6.09933791      -4.21016581       1.21251321
H        9.28572112      -1.08336751      -0.76483308
H       10.03416375      -6.11886765       4.73258587
H       10.86864813      -4.57599307       6.48880897
H        7.74128707      -1.84071353       5.37028020
C       -0.87844169      -0.87844169      -0.87844169
C       -0.80041174      -2.26243636      -0.80076067
C       -1.63561587      -3.03396620      -1.60895360
C       -2.52876208      -2.39181906      -2.46309829
N       -2.59672076      -1.04186747      -2.56822774
C       -1.77698878      -0.31764441      -1.77085906
S       -3.68042175      -3.30816280      -3.47087787
S       -4.76667397      -4.34605047      -2.05772955
C       -5.58814160      -3.01049739      -1.21370435
C       -6.71630104      -2.40749499      -1.75052168
C       -7.28010042      -1.32122664      -1.07733294
C       -6.71675049      -0.85181752       0.11813195
C       -5.59658365      -1.54888184       0.57303428
N       -5.02787267      -2.60810518      -0.05148046
C       -7.26589731       0.29933027       0.85035479
C       -6.44471647       1.26791659       1.44015013
C       -7.00087776       2.33997226       2.14432245
C       -8.38051950       2.43176326       2.26348660
N       -9.20396436       1.52563488       1.68657199
C       -8.63612145       0.49735773       1.01049433
S       -9.20612799       3.76137710       3.12024344
S       -7.96728163       4.25059268       4.68903235
C       -8.28926995       2.92505804       5.83161328
C       -9.30391623       3.04035613       6.77719282
C       -9.50678210       1.99373745       7.67699480
C       -8.69205397       0.87159745       7.60122566
C       -7.70459154       0.83755178       6.62980737
N       -7.48122076       1.84107407       5.74756483
Br      -8.92116012      -0.56602037       8.79810099
H       -0.11310359      -2.74819606      -0.11510786
H       -1.60002377      -4.11694958      -1.54909624
H       -1.87621606       0.75858407      -1.87615422
H       -7.14266228      -2.75242927      -2.68500551
H       -8.14783956      -0.83169268      -1.51539774
H       -5.10007479      -1.27228030       1.49978555
H       -5.36183403       1.21146584       1.35275399
H       -6.34233907       3.08020259       2.58547759
H       -9.35894552      -0.20203564       0.59379447
H       -9.92921192       3.92593369       6.82056800
H      -10.29319839       2.06594387       8.42340843
H       -7.04054824      -0.01554772       6.52580263
C       -0.87844169       0.87844169       0.87844169
C       -0.37434927       1.45061309       2.03864641
C       -1.20524843       2.26537219       2.80791505
C       -2.51309186       2.48699931       2.38358825
N       -3.02602095       1.91343698       1.26735804
C       -2.19737431       1.12966540       0.53845254
S       -3.61153344       3.57594987       3.27197911
S       -2.59533415       5.36956889       3.20555095
C       -2.63545410       5.71729542       1.45959382
C       -3.76769425       6.24788864       0.85873482
C       -3.76517615       6.43847649      -0.52499264
C       -2.63914010       6.10124946      -1.28995349
C       -1.55239224       5.59537477      -0.57533580
N       -1.51939421       5.40279253       0.76527158
C       -2.59903327       6.26778663      -2.75060765
C       -2.01678215       5.31356337      -3.59369577
C       -1.98048426       5.51304032      -4.97694153
C       -2.52000078       6.67527842      -5.51000956
N       -3.11056528       7.60739414      -4.72620194
C       -3.13064273       7.38674539      -3.38911873
S       -2.54944909       7.03286610      -7.25780773
S       -0.81259050       6.22367109      -8.00860499
C        0.39831128       7.41913309      -7.48822319
C        0.71411768       8.50282851      -8.30234355
C        1.69107539       9.40255424      -7.87542900
C        2.31654046       9.18964961      -6.65387829
C        1.94306692       8.08529826      -5.90499894
N        1.00266732       7.19249828      -6.29724909
Br       3.64741963      10.37214424      -6.03564510
H        0.65364901       1.28459842       2.34545810
H       -0.82290713       2.73439456       3.70876790
H       -2.64452831       0.70428481      -0.35502690
H       -4.64809242       6.48985196       1.44215269
H       -4.66486633       6.82780793      -0.99774427
H       -0.62741349       5.32214785      -1.07699180
H       -1.59266708       4.39617359      -3.19122647
H       -1.52985451       4.75477175      -5.60796737
H       -3.60106597       8.18842001      -2.82229928
H        0.21446614       8.65109226      -9.25391590
H        1.95230536      10.25406465      -8.49791319
H        2.39913930       7.87209503      -4.94266240
C        0.87844169      -0.87844169       0.87844169
C        0.31901269      -1.68107006       1.86352602
C        1.15555645      -2.48681327       2.63616595
C        2.52613878      -2.46789538       2.38964527
N        3.08824052      -1.66941114       1.44916431
C        2.25330217      -0.89984957       0.71234051
S        3.65071944      -3.52519293       3.28355005
S        2.93581998      -5.40571693       2.82891708
C        3.25707428      -5.47640580       1.07886325
C        4.52564100      -5.75646766       0.59220905
C        4.73374180      -5.73372640      -0.78880820
C        3.67989095      -5.43521501      -1.66466989
C        2.44470416      -5.19064366      -1.06291662
N        2.20716782      -5.20955659       0.27073391
C        3.85762029      -5.38218396      -3.12359201
C        3.25322023      -4.39597289      -3.91254338
C        3.42951202      -4.38644818      -5.29937714
C        4.20426154      -5.37341891      -5.89241082
N        4.82123741      -6.32789262      -5.15737255
C        4.63190568      -6.31180660      -3.81544289
S        4.51679780      -5.45489057      -7.64718091
S        2.79112038      -4.77634426      -8.53980805
C        1.71774407      -6.18539401      -8.37053944
C        1.67954130      -7.16510470      -9.35827873
C        0.80279061      -8.23954133      -9.20628210
C       -0.00262484      -8.29828088      -8.07642517
C        0.09750736      -7.28087147      -7.14114644
N        0.93494157      -6.22327516      -7.26563486
Br      -1.20835395      -9.72521409      -7.82778063
H       -0.75355017      -1.69991248       2.03004520
H        0.73381724      -3.13308302       3.39916933
H        2.74418568      -0.28894337      -0.03934283
H        5.34823708      -5.96637747       1.26548252
H        5.73624727      -5.92535104      -1.16666832
H        1.56295872      -4.96835448      -1.65874366
H        2.64579554      -3.61392420      -3.46210555
H        2.95592566      -3.60708034      -5.88634711
H        5.13989397      -7.12136548      -3.29407275
H        2.31645324      -7.10048750     -10.23423051
H        0.75769341      -9.01367313      -9.96752045
H       -0.50796961      -7.27777901      -6.23951607
