186
Properties=species:S:1:pos:R:3 pbc="F F F"
C        1.78834572       1.78834572      -1.78834572
C        1.92476903       3.14448371      -1.52406810
C        2.75407861       3.91326611      -2.34090302
C        3.42695510       3.29470340      -3.39173300
N        3.28214423       1.97727102      -3.67711279
C        2.47357054       1.25450582      -2.86712796
S        4.56245350       4.19442991      -4.43229108
S        5.96059439       4.86654661      -3.07302507
C        6.67815680       3.32781863      -2.53607999
C        7.62780219       2.67110403      -3.30512356
C        8.10738524       1.43485095      -2.86613589
C        7.63849090       0.87090925      -1.67074799
C        6.70003127       1.63088820      -0.97122381
N        6.21787452       2.83409826      -1.36519761
C        8.10171661      -0.43577585      -1.17998357
C        7.22937907      -1.36760120      -0.60458395
C        7.70750927      -2.59348378      -0.13226964
C        9.06255703      -2.87708141      -0.22950609
N        9.92959589      -2.00870049      -0.80057416
C        9.43716975      -0.82839175      -1.24920346
S        9.78667750      -4.41237990       0.32007807
S        8.69992030      -4.96431162       1.97824001
C        9.35605646      -3.87280431       3.22094145
C       10.45509792      -4.25412377       3.98489481
C       10.92248044      -3.38538661       4.97133191
C       10.27826662      -2.16957113       5.15975255
C        9.19067168      -1.86763154       4.35609567
N        8.71173947      -2.69405423       3.39539131
Br      10.86666691      -0.96423179       6.48364354
H        1.40935375       3.60809417      -0.68867167
H        2.88569274       4.97133754      -2.13875138
H        2.39956894       0.20160527      -3.12232407
H        7.97736825       3.09214074      -4.24030015
H        8.83083189       0.90818655      -3.48562362
H        6.29069505       1.28696687      -0.02461970
H        6.16429541      -1.16120371      -0.52423457
H        7.00924193      -3.30026178       0.30260919
H       10.19562515      -0.17346348      -1.67473711
H       10.94406778      -5.20896363       3.82268184
H       11.77855216      -3.66608905       5.57890494
H        8.65119109      -0.93080951       4.46037618
C       -1.78834572      -1.78834572      -1.78834572
C       -2.20419524      -3.03854407      -1.35058153
C       -3.02453815      -3.80678005      -2.17692954
C       -3.40856895      -3.29208096      -3.41274160
N       -2.98831285      -2.08456158      -3.86365361
C       -2.19534252      -1.35914612      -3.04071568
S       -4.51615703      -4.18136657      -4.49165088
S       -6.20159327      -4.37922686      -3.31934593
C       -6.70444047      -2.67853619      -3.15907875
C       -7.39333191      -2.03430644      -4.17639143
C       -7.70426461      -0.68124242      -4.02286504
C       -7.32832416       0.01034007      -2.86216404
C       -6.65830025      -0.74504379      -1.89879924
N       -6.34575519      -2.05830438      -2.01311082
C       -7.61856424       1.43867792      -2.66603801
C       -6.69059735       2.31558581      -2.09135029
C       -7.00702381       3.66432618      -1.90359749
C       -8.25863077       4.12773372      -2.28408466
N       -9.17072414       3.31247242      -2.86321783
C       -8.83581370       2.01011603      -3.03228379
S       -8.77038161       5.82835048      -2.11218839
S       -7.86606306       6.49770422      -0.38900983
C       -8.88779137       5.75891458       0.86656609
C      -10.00341287       6.43300501       1.35432850
C      -10.76290520       5.83622162       2.36092166
C      -10.38327320       4.59062221       2.84370806
C       -9.25853010       3.98830643       2.30327921
N       -8.49929607       4.54682383       1.33017830
Br     -11.37186677       3.74548578       4.20758941
H       -1.91281677      -3.41741586      -0.37588695
H       -3.37284815      -4.77910912      -1.84382440
H       -1.89593134      -0.39263368      -3.43493327
H       -7.66704713      -2.55837534      -5.08438668
H       -8.21924554      -0.17085647      -4.83454005
H       -6.34204547      -0.30293643      -0.95729971
H       -5.70445129       1.96809739      -1.79097237
H       -6.26734965       4.32362790      -1.46264921
H       -9.62611026       1.41200486      -3.48279337
H      -10.28291180       7.40611386       0.96437563
H      -11.63671219       6.34767042       2.75548360
H       -8.91792831       3.01467394       2.64324897
C       -1.78834572       1.78834572       1.78834572
C       -1.24997332       2.47522715       2.86812037
C       -2.08385108       3.28562300       3.63877367
C       -3.42981856       3.38769681       3.29587613
N       -3.97392909       2.70200666       2.26059229
C       -3.14181363       1.92520516       1.52818553
S       -4.54169242       4.46155489       4.18592718
S       -3.66417230       6.30994940       3.92604436
C       -3.84649402       6.52745343       2.16810795
C       -5.05184431       6.93606789       1.61611758
C       -5.15606689       7.02616999       0.22613520
C       -4.06261569       6.71112690      -0.59359446
C       -2.89667270       6.33225215       0.07321842
N       -2.75986098       6.23944448       1.41786493
C       -4.13286893       6.77427727      -2.06122188
C       -3.54133858       5.80306556      -2.87804233
C       -3.61255406       5.90431835      -4.27057729
C       -4.26903339       6.98622273      -4.84027441
N       -4.87122724       7.93060338      -4.08036107
C       -4.78544671       7.80604491      -2.73351016
S       -4.44156985       7.21412442      -6.60147475
S       -2.70530181       6.47148122      -7.41941437
C       -1.55148061       7.78000721      -7.06917712
C       -1.37002730       8.82097671      -7.97492466
C       -0.43397874       9.81274745      -7.68096428
C        0.28587990       9.73095205      -6.49612922
C        0.04414435       8.66084965      -5.64976083
N       -0.85369357       7.68092613      -5.91232577
Br       1.56660515      11.04168908      -6.05629235
H       -0.19439452       2.40121882       3.11050625
H       -1.67663267       3.84298337       4.47616562
H       -3.61617909       1.40744987       0.69986933
H       -5.90618787       7.15973479       2.24388649
H       -6.11120875       7.31907147      -0.20563816
H       -1.99021759       6.08636253      -0.47429851
H       -3.02612241       4.94764985      -2.44644599
H       -3.15187571       5.13454571      -4.88005046
H       -5.27326550       8.61305468      -2.18942141
H       -1.94188230       8.86635882      -8.89581882
H       -0.27722352      10.63280578      -8.37647113
H        0.57803599       8.54869123      -4.71064984
C        1.78834572      -1.78834572       1.78834572
C        1.25356391      -2.46086568       2.87889126
C        2.08708634      -3.27182075       3.64934066
C        3.42899857      -3.38888094       3.29551199
N        3.96990328      -2.71721098       2.24941379
C        3.13818702      -1.93952612       1.51749119
S        4.53923462      -4.46469756       4.18524232
S        3.64317661      -6.30743329       3.94955616
C        3.80793093      -6.54203966       2.19208482
C        5.00467483      -6.96620910       1.63314585
C        5.09573199      -7.06948503       0.24315504
C        3.99785300      -6.75196781      -0.56967268
C        2.84127239      -6.35687398       0.10399690
N        2.71724927      -6.25100250       1.44891862
C        4.05449049      -6.82867652      -2.03724268
C        3.46430357      -5.85948071      -2.85742246
C        3.52223521      -5.97363540      -4.24957548
C        4.16405806      -7.06631624      -4.81539259
N        4.76463803      -8.00927962      -4.05244810
C        4.69194161      -7.87209428      -2.70605444
S        4.31890719      -7.31126119      -6.57594885
S        2.58204736      -6.56044420      -7.38512289
C        1.41989594      -7.85551749      -7.01310273
C        1.22122380      -8.90277642      -7.90792088
C        0.27911989      -9.88355238      -7.59691035
C       -0.42942293      -9.78491539      -6.40654953
C       -0.17074459      -8.70958549      -5.57189643
N        0.73332649      -7.74003919      -5.85107174
Br      -1.71769101     -11.08028092      -5.94379833
H        0.20087619      -2.37533767       3.12990573
H        1.68243426      -3.81813314       4.49521426
H        3.60971245      -1.43333292       0.68045292
H        5.86256314      -7.19192290       2.25532310
H        6.04437645      -7.37466533      -0.19439972
H        1.93218632      -6.10776821      -0.43767291
H        2.96050779      -4.99574468      -2.42892621
H        3.06295837      -5.20519875      -4.86178615
H        5.17744694      -8.67858295      -2.15913112
H        1.78444317      -8.96135972      -8.83338059
H        0.10896137     -10.70828368      -8.28368688
H       -0.69525285      -8.58440818      -4.62914993
C       -0.00445707       0.01189536      -1.78238275
H       -0.66409135       0.67374010      -2.43557963
H        0.65740317      -0.63156657      -2.45157240
C       -0.90989263      -0.90692880      -0.91072765
C        0.90977584       0.90977584      -0.90977584
C       -0.00465871       1.77757030       0.00794375
H       -0.66225468       2.44313916      -0.64384735
H        0.64322798       2.43503045       0.67728295
C       -1.78241447       0.00034974      -0.00472694
H       -2.45427497      -0.65498947       0.64260836
H       -2.43311707       0.67328779      -0.65473579
C       -0.91132561       0.90220522       0.91563759
C       -0.01476271      -0.02253852       1.78660255
H       -0.67934791      -0.69751639       2.42135241
H        0.63392994       0.61504881       2.47327442
C        0.01484550      -1.77751727      -0.01636693
H        0.67870853      -2.42144646      -0.68295456
H       -0.62264859      -2.45592969       0.64226336
C        1.78714474       0.01002794       0.00389507
H        2.44202412       0.67113390       0.66197326
H        2.45385902      -0.65136977      -0.64189061
C        0.91606151      -0.90478549       0.90901405
