146
Properties=species:S:1:pos:R:3 pbc="F F F"
O        1.60570591       3.41147097      -5.07659718
C        2.08429437       3.00820057      -3.85925692
C        1.30073555       2.19638552      -3.03878841
C        1.79550445       1.79550445      -1.79550445
C        3.06689379       2.20303557      -1.38048109
C        3.84951357       3.01381271      -2.20376418
C        3.35779476       3.42190220      -3.44871889
C        4.16376010       4.27535056      -4.27032625
C        4.82296294       5.01704755      -4.94538551
C        5.64090113       5.99995053      -5.78728597
C        6.25921014       6.80503470      -6.42800684
C        6.97908863       7.79595731      -7.17160460
C        8.35626428       7.93030394      -6.95894564
C        9.07631883       8.90598650      -7.65189358
O       10.42037340       9.03723318      -7.43661646
C        8.42877950       9.74942775      -8.55928483
C        7.05740892       9.61616710      -8.77742806
C        6.33885736       8.64263837      -8.08534015
O        4.99815987       8.57941778      -8.35291218
O        3.54594575       1.81036484      -0.16164609
H        0.71671727       3.04429358      -5.21276391
H        0.31213125       1.87770108      -3.35424950
H        4.83689584       3.33720745      -1.88644491
H        8.85568061       7.27563905      -6.25005458
H       10.71252688       8.38465276      -6.77998746
H        6.53999009      10.26496467      -9.47891835
H        4.59833843       7.86477843      -7.82827982
H        4.43062943       2.18561340      -0.02177688
C        9.14406112      10.76825731      -9.28313463
C        9.74310948      11.62152706      -9.88935884
Br      10.71172000      13.00119209     -10.86957211
O       -5.09863231      -3.36834428      -1.62679747
C       -3.87084182      -2.98552684      -2.09538320
C       -3.04397218      -2.18623995      -1.30569735
C       -1.79550445      -1.79550445      -1.79550445
C       -1.37898010      -2.20597327      -3.06545707
C       -2.20729063      -3.00691082      -3.85288901
C       -3.46074157      -3.39837166      -3.36930262
C       -4.30924791      -4.19917388      -4.20101512
C       -5.03497915      -4.84169673      -4.90872013
C       -5.98090492      -5.62100350      -5.82622922
C       -6.74104668      -6.19235954      -6.55884546
C       -7.66100959      -6.83810388      -7.44753706
C       -7.15510463      -7.54638557      -8.54402365
C       -8.03160573      -8.16282166      -9.43977151
O       -7.53291559      -8.84875849     -10.51254896
C       -9.41341727      -8.07773723      -9.24633758
C       -9.92170378      -7.37661411      -8.15268619
C       -9.04672979      -6.76102626      -7.25907983
O       -9.62473223      -6.09023763      -6.21551997
O       -0.15728058      -1.81890893      -3.54176717
H       -5.23344972      -3.00380774      -0.73651730
H       -3.36190007      -1.86272753      -0.31945423
H       -1.89176673      -3.32679171      -4.84198977
H       -6.08063728      -7.60721911      -8.69351784
H       -6.56298524      -8.80936504     -10.50481681
H      -10.99334651      -7.30095691      -7.98956970
H       -8.92910071      -5.71027435      -5.65202163
H       -0.02698094      -2.17542814      -4.43561065
C      -10.34104494      -8.69773693     -10.15667119
C      -11.11793311      -9.21698668     -10.91907559
Br     -12.37409557     -10.05656962     -12.15181902
O       -5.29886199       1.94207963       2.85283245
C       -3.97300049       2.25624249       2.72250888
C       -3.14859721       1.47044018       1.91687210
C       -1.79550445       1.79550445       1.79550445
C       -1.27483394       2.90146827       2.47410824
C       -2.10193611       3.68699752       3.27815683
C       -3.45745748       3.36413148       3.40682690
C       -4.28689457       4.16581749       4.25672485
C       -4.97585388       4.81562134       4.99392079
C       -5.84575382       5.61341996       5.96896386
C       -6.51829990       6.20810782       6.76584396
C       -7.30831284       6.89217988       7.74615781
C       -6.92170373       8.17651001       8.14730013
C       -7.65972571       8.85420832       9.12026487
O       -7.27490767      10.10628904       9.51302632
C       -8.78504836       8.25690633       9.69553739
C       -9.17633120       6.97902069       9.29565218
C       -8.43929908       6.30261792       8.32491888
O       -8.88635023       5.05286184       7.99127775
O        0.05071183       3.21426182       2.35440669
H       -5.49867443       1.15414079       2.32095955
H       -3.54608566       0.60947331       1.38852286
H       -1.70363569       4.54575818       3.81115434
H       -6.04424873       8.63622034       7.70090517
H       -6.47923281      10.37294002       9.02499427
H      -10.04821311       6.50136030       9.73429971
H       -8.31035977       4.67775062       7.30328629
H        0.25209477       3.99617734       2.89393715
C       -9.56135189       8.92896459      10.70513658
C      -10.21150610       9.49181338      11.55067590
Br     -11.26275046      10.40189227      12.91784147
O        1.36018796      -4.35282453       4.38076156
C        1.95888525      -3.48955812       3.50330849
C        1.17510913      -2.66844902       2.69235133
C        1.79550445      -1.79550445       1.79550445
C        3.19040598      -1.74458787       1.71541659
C        3.97233663      -2.56583945       2.52891438
C        3.35661211      -3.44523252       3.42657121
C        4.17376159      -4.29981005       4.23586527
C        4.85503529      -5.03993295       4.89042776
C        5.71891573      -6.01726848       5.69195343
C        6.39034173      -6.81457514       6.28733481
C        7.18935610      -7.79146091       6.96583352
C        8.54913412      -7.52751471       7.16886503
C        9.35536425      -8.47450329       7.80433137
O       10.68428421      -8.21461021       7.99532862
C        8.81088146      -9.68569920       8.24091143
C        7.45550919      -9.95100457       8.04449032
C        6.65113533      -9.00591748       7.40978307
O        5.33435873      -9.34400690       7.25212420
O        3.79318987      -0.89050740       0.83425942
H        0.39508009      -4.26459618       4.31409849
H        0.09159460      -2.70412025       2.74836698
H        5.05663066      -2.53421040       2.46970715
H        8.96988279      -6.58671600       6.82477545
H       10.90263040      -7.34040160       7.63413510
H        7.01807589     -10.88828753       8.37750970
H        4.86530747      -8.61528905       6.81080016
H        4.75771830      -0.98601587       0.89428555
C        9.61898654     -10.68318719       8.89327934
C       10.29577455     -11.51858338       9.43963746
Br      11.39008351     -12.86934836      10.32305234
C       -0.00445707       0.01189536      -1.78238275
H       -0.66409135       0.67374010      -2.43557963
H        0.65740317      -0.63156657      -2.45157240
C       -0.90989263      -0.90692880      -0.91072765
C        0.90977584       0.90977584      -0.90977584
C       -0.00465871       1.77757030       0.00794375
H       -0.66225468       2.44313916      -0.64384735
H        0.64322798       2.43503045       0.67728295
C       -1.78241447       0.00034974      -0.00472694
H       -2.45427497      -0.65498947       0.64260836
H       -2.43311707       0.67328779      -0.65473579
C       -0.91132561       0.90220522       0.91563759
C       -0.01476271      -0.02253852       1.78660255
H       -0.67934791      -0.69751639       2.42135241
H        0.63392994       0.61504881       2.47327442
C        0.01484550      -1.77751727      -0.01636693
H        0.67870853      -2.42144646      -0.68295456
H       -0.62264859      -2.45592969       0.64226336
C        1.78714474       0.01002794       0.00389507
H        2.44202412       0.67113390       0.66197326
H        2.45385902      -0.65136977      -0.64189061
C        0.91606151      -0.90478549       0.90901405
