78
Properties=species:S:1:pos:R:3 pbc="F F F"
C        1.81665180       1.81665180      -1.81665180
C        1.95513447       3.21268631      -1.23733891
C        3.18174412       3.74305140      -1.96444786
C        4.11803018       2.53994624      -2.02915973
Br       5.10761205       2.53451205      -3.69915813
C        3.24354914       1.29048136      -1.89576137
H        1.35413613       1.84617782      -2.80873857
H        2.13927772       3.19133588      -0.15598008
H        1.06987542       3.83160712      -1.41592587
H        2.88996267       4.09693788      -2.95940312
H        3.63480092       4.58719913      -1.43514559
H        4.86848688       2.57441332      -1.23249912
H        3.35137916       0.57396147      -2.71755796
H        3.52825647       0.76038142      -0.97801485
C       -1.81665180      -1.81665180      -1.81665180
C       -2.14858839      -3.12810564      -1.12846566
C       -3.35055856      -3.61439489      -1.92428993
C       -4.15014890      -2.34307952      -2.19390773
Br      -4.97632234      -2.41596777      -3.94899211
C       -3.16952332      -1.17225288      -2.08801567
H       -1.27026213      -1.98897667      -2.74981372
H       -2.42826114      -2.98042650      -0.07790604
H       -1.31796631      -3.84069956      -1.15874255
H       -3.00590798      -4.09262138      -2.84777432
H       -3.93357660      -4.35529888      -1.36827016
H       -4.97028820      -2.22747790      -1.47763322
H       -3.12815759      -0.53585029      -2.97889071
H       -3.48220768      -0.52794637      -1.25649869
C       -1.81665180       1.81665180       1.81665180
C       -2.25183165       1.08190299       3.07142506
C       -2.68814532       2.22303806       3.97805999
C       -1.65899629       3.31741667       3.71072320
Br      -2.49232637       5.06927341       3.77968245
C       -1.06391518       3.03764419       2.32823250
H       -2.68154644       2.11332500       1.21418108
H       -1.42232110       0.53158464       3.53268795
H       -3.06327438       0.37160923       2.88252481
H       -3.70405670       2.53290949       3.70933748
H       -2.70361204       1.92298373       5.03054986
H       -0.87541082       3.32442145       4.47556705
H       -1.14717022       3.87231530       1.62341306
H        0.00753296       2.83037047       2.44381523
C        1.81665180      -1.81665180       1.81665180
C        2.19196446      -1.10792438       3.10527086
C        2.63584552      -2.26275136       3.99064650
C        1.64886443      -3.37842272       3.65984899
Br       2.53277091      -5.10616689       3.70234442
C        1.08666522      -3.07437955       2.26874710
H        2.70761408      -2.06913746       1.23230097
H        1.33280197      -0.59667463       3.55711708
H        2.98662259      -0.36852919       2.96225664
H        3.66822447      -2.53412594       3.74395326
H        2.61104499      -1.99457178       5.05152887
H        0.84358889      -3.43188403       4.39992640
H        1.21610676      -3.88436664       1.54242519
H        0.00645195      -2.90248691       2.35771388
C       -0.00445707       0.01189536      -1.78238275
H       -0.66409135       0.67374010      -2.43557963
H        0.65740317      -0.63156657      -2.45157240
C       -0.90989263      -0.90692880      -0.91072765
C        0.90977584       0.90977584      -0.90977584
C       -0.00465871       1.77757030       0.00794375
H       -0.66225468       2.44313916      -0.64384735
H        0.64322798       2.43503045       0.67728295
C       -1.78241447       0.00034974      -0.00472694
H       -2.45427497      -0.65498947       0.64260836
H       -2.43311707       0.67328779      -0.65473579
C       -0.91132561       0.90220522       0.91563759
C       -0.01476271      -0.02253852       1.78660255
H       -0.67934791      -0.69751639       2.42135241
H        0.63392994       0.61504881       2.47327442
C        0.01484550      -1.77751727      -0.01636693
H        0.67870853      -2.42144646      -0.68295456
H       -0.62264859      -2.45592969       0.64226336
C        1.78714474       0.01002794       0.00389507
H        2.44202412       0.67113390       0.66197326
H        2.45385902      -0.65136977      -0.64189061
C        0.91606151      -0.90478549       0.90901405
