130
Properties=species:S:1:pos:R:3 pbc="F F F"
C        1.81540044       1.81540044      -1.81540044
H        1.22472610       2.69198200      -2.10242358
C        3.09347697       2.21732055      -1.10497912
C        4.04380681       2.60478035      -2.23663057
C        3.50674976       1.91368383      -3.50704927
H        3.10894435       2.70047486      -4.16435793
C        2.31947873       1.06238851      -3.03278006
C        4.53945470       1.11471118      -4.31528064
H        4.00843378       0.63984244      -5.15303190
C        5.27143065      -0.00248769      -3.54341588
C        6.76257730       0.20358099      -3.80481951
C        6.80557527       1.02002127      -5.08185876
H        6.66925932       0.38783405      -5.96548373
C        5.65228388       1.99094293      -4.90985792
Br       8.49003646       1.94441895      -5.28043820
H        3.52303398       1.37782548      -0.54352334
H        2.94026492       3.03908733      -0.39823607
H        4.02785483       3.69177105      -2.38136306
H        5.07375212       2.33262269      -1.98673712
H        1.55106049       0.97406157      -3.80827842
H        2.63628158       0.04603299      -2.77103290
H        4.95604277      -0.97814233      -3.93251772
H        5.06427088      -0.00680080      -2.46907500
H        7.20505774       0.75031963      -2.96209810
H        7.29852524      -0.74680120      -3.89574375
H        5.91804412       2.81197707      -4.23337713
H        5.34740485       2.43957589      -5.86157103
C       -1.81540044      -1.81540044      -1.81540044
H       -1.36550879      -2.81373483      -1.83988806
C       -3.24369494      -1.86396259      -1.30811910
C       -4.05713985      -2.30399638      -2.52408151
C       -3.20138621      -1.96418539      -3.76191127
H       -2.86180646      -2.91568200      -4.19628868
C       -1.96443412      -1.23890029      -3.21131289
C       -3.91895799      -1.18019149      -4.87029705
H       -3.17971162      -0.96587379      -5.65572270
C       -4.53713081       0.16666896      -4.44189699
C       -5.97873276       0.15559227      -4.94783731
C       -5.97253132      -0.87286463      -6.06205935
H       -5.57800189      -0.45185368      -6.99272153
C       -5.06935670      -1.96459060      -5.51913745
Br      -7.74904747      -1.53655610      -6.42929004
H       -3.58858469      -0.87472140      -0.98107672
H       -3.36589872      -2.54877104      -0.46291857
H       -4.22686239      -3.38685823      -2.48726832
H       -5.04229229      -1.82778482      -2.52303482
H       -1.07934914      -1.42493440      -3.82911693
H       -2.11829443      -0.15387823      -3.18117480
H       -3.98249100       0.98639890      -4.91432606
H       -4.50758579       0.34360291      -3.36256221
H       -6.64681150      -0.14153244      -4.12913153
H       -6.30101976       1.14420014      -5.29064818
H       -5.59228405      -2.58745890      -4.78365537
H       -4.70785068      -2.63019320      -6.31050788
C       -1.81540044       1.81540044       1.81540044
H       -2.82824190       1.39914794       1.79174184
C       -1.28389649       1.89863134       3.23324881
C       -1.92049773       3.16787900       3.79684101
C       -2.32039355       4.02736558       2.57972373
H       -3.41880667       4.02845742       2.52651305
C       -1.79822175       3.26139479       1.35503076
C       -1.85823747       5.49121839       2.61999066
H       -2.16546170       5.96132912       1.67451729
C       -0.33791829       5.70717322       2.76726734
C       -0.15639867       6.70218075       3.91239839
C       -1.49349281       7.41165071       4.00231178
H       -1.58130168       8.19697822       3.24429720
C       -2.49330089       6.29533588       3.76444797
Br      -1.74728866       8.23769643       5.72990852
H       -0.19162906       2.00462272       3.24813103
H       -1.53478485       1.01465650       3.82814697
H       -2.81952236       2.91131780       4.37014878
H       -1.23594808       3.66993482       4.48722903
H       -2.43467246       3.42074075       0.47798726
H       -0.78544538       3.58277920       1.08512289
H        0.05933391       6.13217939       1.83757267
H        0.22273023       4.78786668       2.96140863
H        0.07126535       6.15337366       4.83536715
H        0.67362386       7.39219716       3.72889450
H       -2.62438976       5.67791973       4.66108883
H       -3.48079500       6.68023539       3.48752138
C        1.81540044      -1.81540044       1.81540044
H        2.81019163      -1.35842034       1.85051972
C        1.23163648      -1.97867543       3.20546473
C        1.89746192      -3.24383479       3.74392102
C        2.38102693      -4.03531143       2.51114450
H        3.47978311      -3.99033634       2.50365769
C        1.87676339      -3.24053081       1.29735311
C        1.97890810      -5.51685516       2.47368326
H        2.34291801      -5.93459991       1.52379020
C        0.46421825      -5.79927170       2.54886889
C        0.27866181      -6.84749316       3.64482284
C        1.63944694      -7.50614121       3.76186715
H        1.79003111      -8.25513403       2.97741195
C        2.60066518      -6.34187533       3.61054424
Br       1.85820157      -8.39252522       5.46416682
H        0.14499917      -2.12871635       3.17066729
H        1.42159604      -1.11089400       3.84509828
H        2.76143368      -2.97565000       4.36390527
H        1.20736679      -3.80109586       4.38464927
H        2.55379675      -3.33772954       0.44187419
H        0.88981210      -3.59058964       0.97294572
H        0.12241763      -6.20076811       1.58723242
H       -0.14147923      -4.91195056       2.75607375
H       -0.00829443      -6.34707074       4.57869915
H       -0.51395904      -7.56186804       3.39955880
H        2.67006311      -5.75754045       4.53579475
H        3.61357944      -6.67519436       3.35977797
C       -0.00445707       0.01189536      -1.78238275
H       -0.66409135       0.67374010      -2.43557963
H        0.65740317      -0.63156657      -2.45157240
C       -0.90989263      -0.90692880      -0.91072765
C        0.90977584       0.90977584      -0.90977584
C       -0.00465871       1.77757030       0.00794375
H       -0.66225468       2.44313916      -0.64384735
H        0.64322798       2.43503045       0.67728295
C       -1.78241447       0.00034974      -0.00472694
H       -2.45427497      -0.65498947       0.64260836
H       -2.43311707       0.67328779      -0.65473579
C       -0.91132561       0.90220522       0.91563759
C       -0.01476271      -0.02253852       1.78660255
H       -0.67934791      -0.69751639       2.42135241
H        0.63392994       0.61504881       2.47327442
C        0.01484550      -1.77751727      -0.01636693
H        0.67870853      -2.42144646      -0.68295456
H       -0.62264859      -2.45592969       0.64226336
C        1.78714474       0.01002794       0.00389507
H        2.44202412       0.67113390       0.66197326
H        2.45385902      -0.65136977      -0.64189061
C        0.91606151      -0.90478549       0.90901405
