138
Properties=species:S:1:pos:R:3 pbc="F F F"
C        1.81540044       1.81540044      -1.81540044
H        1.22472610       2.69198200      -2.10242358
C        3.09347697       2.21732055      -1.10497912
C        4.04380681       2.60478035      -2.23663057
C        3.50674976       1.91368383      -3.50704927
H        3.10894435       2.70047486      -4.16435793
C        2.31947873       1.06238851      -3.03278006
C        4.53945470       1.11471118      -4.31528064
H        4.00843378       0.63984244      -5.15303190
C        5.27143065      -0.00248769      -3.54341588
C        6.76257730       0.20358099      -3.80481951
C        6.80557527       1.02002127      -5.08185876
H        6.66925932       0.38783405      -5.96548373
C        5.65228388       1.99094293      -4.90985792
H        3.52303398       1.37782548      -0.54352334
H        2.94026492       3.03908733      -0.39823607
H        4.02785483       3.69177105      -2.38136306
H        5.07375212       2.33262269      -1.98673712
H        1.55106049       0.97406157      -3.80827842
H        2.63628158       0.04603299      -2.77103290
H        4.95604277      -0.97814233      -3.93251772
H        5.06427088      -0.00680080      -2.46907500
H        7.20505774       0.75031963      -2.96209810
H        7.29852524      -0.74680120      -3.89574375
H        5.91804412       2.81197707      -4.23337713
H        5.34740485       2.43957589      -5.86157103
C        8.06128787       1.70913054      -5.22989346
C        9.11294718       2.28625955      -5.35387252
Br      10.81339133       3.21942834      -5.55433618
C       -1.81540044      -1.81540044      -1.81540044
H       -1.50144540      -2.85374779      -1.66393850
C       -3.28685530      -1.63002318      -1.49889816
C       -4.00416939      -2.12901050      -2.75203784
C       -2.97285793      -2.05747254      -3.89715239
H       -2.71360779      -3.09097444      -4.16919491
C       -1.72355968      -1.41479242      -3.27629520
C       -3.44676023      -1.34849152      -5.17419477
H       -2.59935303      -1.32721824      -5.87473685
C       -3.92737801       0.10583909      -4.99081992
C       -5.28906450       0.19593443      -5.67784773
C       -5.28902666      -0.96425772      -6.65417092
H       -4.73677379      -0.71856690      -7.56723641
C       -4.60722435      -2.07240306      -5.87345734
H       -3.53385898      -0.57291443      -1.33760941
H       -3.59590337      -2.17836864      -0.60331631
H       -4.31845066      -3.17036362      -2.61217467
H       -4.91121774      -1.54543788      -2.93645631
H       -0.80493856      -1.78247298      -3.74598894
H       -1.73531879      -0.32481699      -3.39321168
H       -3.21821781       0.78587365      -5.47807399
H       -4.00055616       0.41903082      -3.94501974
H       -6.08121717       0.08925617      -4.92551446
H       -5.43594296       1.16137786      -6.17290270
H       -5.28979853      -2.52761927      -5.14598052
H       -4.24710854      -2.87414206      -6.52730117
C       -6.62613903      -1.33330199      -7.04087085
C       -7.74597064      -1.64237657      -7.36473204
Br      -9.55664364      -2.14212401      -7.88838820
C       -1.81540044       1.81540044       1.81540044
H       -2.78343162       1.31409273       1.92160734
C       -1.17524957       2.07514175       3.16538531
C       -1.87694016       3.33254499       3.67573259
C       -2.45718889       4.03787514       2.43241882
H       -3.55146340       3.94054951       2.48176423
C       -1.97210070       3.20846996       1.23407664
C       -2.13152975       5.53311269       2.30480408
H       -2.56049680       5.88534046       1.35547085
C       -0.63091292       5.89040399       2.29104192
C       -0.44601136       6.99948571       3.32548072
C       -1.83080975       7.59789602       3.47874952
H       -2.05549898       8.29893903       2.66813909
C       -2.73898530       6.38328773       3.43081171
H       -0.10029856       2.27460591       3.06947834
H       -1.29125194       1.23224083       3.85409555
H       -2.69613283       3.05489475       4.34996137
H       -1.18583810       3.95308841       4.25418543
H       -2.69292266       3.23077025       0.40970757
H       -1.02028278       3.58834040       0.84472428
H       -0.35548652       6.25929491       1.29563672
H        0.02733430       5.04420509       2.50967429
H       -0.09056033       6.56032610       4.26658903
H        0.29755612       7.73753764       3.00748628
H       -2.73527852       5.84309256       4.38502724
H       -3.77797988       6.65532336       3.21524853
C       -1.96622899       8.31253027       4.72155262
C       -2.07964260       8.91103645       5.76240021
Br      -2.26302281       9.87877032       7.44536273
C        1.81540044      -1.81540044       1.81540044
H        2.67370133      -1.21321811       2.13221225
C        1.05031261      -2.35882591       3.00663812
C        1.86147327      -3.57588255       3.44786192
C        2.70031015      -4.00194422       2.22522849
H        3.75105986      -3.77030522       2.45241207
C        2.25669052      -3.07131186       1.08664493
C        2.62494707      -5.49017351       1.85432594
H        3.22337102      -5.63480832       0.94312878
C        1.21089935      -6.03527813       1.56618136
C        1.06214228      -7.30305602       2.40577951
C        2.48942454      -7.73058925       2.68744151
H        2.92243302      -8.26483185       1.83531223
C        3.20109970      -6.41409786       2.93788718
H        0.04011042      -2.68091993       2.72335246
H        0.94555191      -1.62234929       3.80968712
H        2.53326935      -3.29855859       4.26916101
H        1.20259796      -4.36238262       3.82813134
H        3.07454352      -2.87334908       0.38550788
H        1.43304892      -3.50943135       0.51086719
H        1.12784878      -6.28179947       0.50076991
H        0.40891305      -5.32596972       1.79166231
H        0.52362701      -7.06235094       3.33149751
H        0.48748992      -8.07553219       1.88444568
H        2.99011534      -6.03018514       3.94309783
H        4.28855228      -6.51136648       2.84863301
C        2.56723387      -8.60147830       3.83159970
C        2.63239918      -9.33084788       4.78983219
Br       2.73776598     -10.51017680       6.33921308
C       -0.00445707       0.01189536      -1.78238275
H       -0.66409135       0.67374010      -2.43557963
H        0.65740317      -0.63156657      -2.45157240
C       -0.90989263      -0.90692880      -0.91072765
C        0.90977584       0.90977584      -0.90977584
C       -0.00465871       1.77757030       0.00794375
H       -0.66225468       2.44313916      -0.64384735
H        0.64322798       2.43503045       0.67728295
C       -1.78241447       0.00034974      -0.00472694
H       -2.45427497      -0.65498947       0.64260836
H       -2.43311707       0.67328779      -0.65473579
C       -0.91132561       0.90220522       0.91563759
C       -0.01476271      -0.02253852       1.78660255
H       -0.67934791      -0.69751639       2.42135241
H        0.63392994       0.61504881       2.47327442
C        0.01484550      -1.77751727      -0.01636693
H        0.67870853      -2.42144646      -0.68295456
H       -0.62264859      -2.45592969       0.64226336
C        1.78714474       0.01002794       0.00389507
H        2.44202412       0.67113390       0.66197326
H        2.45385902      -0.65136977      -0.64189061
C        0.91606151      -0.90478549       0.90901405
