173
Properties=species:S:1:pos:R:3 pbc="F F F"
C        0.00000000       0.00000000       0.00000000
O        1.89326599       5.09806783      -3.87466324
C        2.96458575       4.50781165      -4.00506578
C        3.95227304       5.02841587      -5.02299237
C        5.36047051       4.93090709      -4.50064076
C        5.56698597       3.52182500      -4.05454958
N        4.64385940       2.79218930      -3.51415360
N        3.36814174       3.32172365      -3.36058320
C        2.50937944       2.51977836      -2.52244828
C        1.15929726       2.82596531      -2.29141451
C        0.35073387       2.01703291      -1.47874344
C        0.88081023       0.88081023      -0.88081023
C        2.21226622       0.54644835      -1.08712775
C        3.01413701       1.35906040      -1.89910737
C        6.95264295       2.93377898      -4.19544363
N        7.97122573       3.72544784      -4.07398547
N        9.24903225       3.19965659      -4.20534134
C        9.48769747       1.90570290      -4.70539486
O       10.57009639       1.32270111      -4.76006523
C        8.26969504       1.22748264      -5.28451557
C        7.06400547       1.46102827      -4.41404274
C       10.29225865       4.11855247      -3.82908352
C       11.64082182       3.91302044      -4.16124434
C       12.63388549       4.83110601      -3.79197112
C       12.29264416       5.97296969      -3.07783406
C       10.96681866       6.20880986      -2.73568004
C        9.97820370       5.29174377      -3.11450472
Br      13.63143416       7.20762981      -2.57642429
H        3.71493666       6.07314434      -5.25116876
H        3.82606214       4.44309828      -5.94151827
H        5.51684564       5.59062284      -3.64059124
H        6.07352394       5.19960455      -5.28567442
H        0.67934849       3.69277653      -2.73277358
H       -0.69059802       2.29038294      -1.32686071
H        2.64135539      -0.33942040      -0.62645280
H        4.05135610       1.06165427      -2.03329727
H        8.46253918       0.15247878      -5.36596790
H        8.11448819       1.62298356      -6.29511420
H        7.17435030       0.97766344      -3.43725024
H        6.16566708       1.06981161      -4.90053999
H       11.96417151       3.05160775      -4.73772222
H       13.66535325       4.63912804      -4.07400364
H       10.68695636       7.09697533      -2.17446481
H        8.95328253       5.50508429      -2.82156641
O       -3.62363134      -5.23845405      -2.00391166
C       -3.76956541      -4.63951207      -3.06838569
C       -4.40070266      -5.37642304      -4.22655557
C       -5.32292979      -4.47105297      -4.99803559
C       -4.54387028      -3.24817896      -5.35131131
N       -3.63914763      -2.72228807      -4.58876661
N       -3.33616392      -3.33537981      -3.37890487
C       -2.51282214      -2.52516165      -2.51362229
C       -2.02591603      -2.97444178      -1.27631927
C       -1.21842249      -2.16261391      -0.46547382
C       -0.88081023      -0.88081023      -0.88081023
C       -1.34399551      -0.40279850      -2.09904832
C       -2.15053137      -1.21845491      -2.90331851
C       -4.87188352      -2.55548904      -6.65449300
N       -6.09499113      -2.59522753      -7.08044039
N       -6.40924168      -1.96715488      -8.27763363
C       -5.42492684      -1.50331429      -9.17055410
O       -5.60749951      -0.84878485     -10.19657837
C       -4.01965552      -1.93483866      -8.82719906
C       -3.77247487      -1.81981650      -7.34678511
C       -7.82454054      -1.88414670      -8.53120740
C       -8.35218071      -1.56929546      -9.79361042
C       -9.73525078      -1.50740654     -10.01430530
C      -10.61671824      -1.75694979      -8.96977988
C      -10.12814142      -2.07467494      -7.70849219
C       -8.74530574      -2.14279380      -7.49635265
Br     -12.48019939      -1.66907637      -9.26621250
H       -4.96260408      -6.23452027      -3.84212541
H       -3.59199490      -5.75703773      -4.86164606
H       -6.18536957      -4.16748968      -4.39520047
H       -5.68264623      -4.97760339      -5.89855329
H       -2.24411867      -3.96605023      -0.89472969
H       -0.86185617      -2.55043050       0.48564103
H       -1.08821730       0.59765601      -2.43782650
H       -2.49262579      -0.80478095      -3.84890089
H       -3.30797173      -1.30338555      -9.36962858
H       -3.89180780      -2.96700044      -9.17377771
H       -3.79781133      -0.77602448      -7.01542816
H       -2.79749701      -2.24591020      -7.09261147
H       -7.71342335      -1.38748679     -10.65259134
H      -10.10386438      -1.26700927     -11.00761128
H      -10.80719915      -2.26923440      -6.88196296
H       -8.39994389      -2.38545148      -6.49453787
O       -5.42701447       2.30475339       3.13422919
C       -4.71715945       3.22646404       3.53383968
C       -5.37801168       4.38959100       4.23607860
C       -4.53626548       4.86680366       5.38894922
C       -3.16561091       5.12138905       4.85636059
N       -2.61104149       4.41725717       3.92190365
N       -3.32942974       3.37778147       3.34323739
C       -2.52476247       2.51561419       2.51122943
C       -3.05701962       1.44832875       1.77132871
C       -2.24576079       0.63685517       0.96389427
C       -0.88081023       0.88081023       0.88081023
C       -0.31928805       1.92810585       1.59844843
C       -1.13504837       2.73391488       2.40334154
C       -2.36052570       6.23554640       5.48579346
N       -2.53914591       6.48725162       6.74426151
N       -1.80973052       7.51033972       7.33395994
C       -1.07162870       8.44433364       6.58283290
O       -0.31881993       9.31431687       7.01972592
C       -1.31207938       8.37551918       5.09409468
C       -1.36618714       6.94536639       4.62752295
C       -1.92384828       7.54684948       8.76919687
C       -1.52602055       8.65486526       9.53420078
C       -1.66010561       8.66720351      10.92965349
C       -2.19331481       7.56458139      11.58555171
C       -2.60015854       6.45266843      10.85848158
C       -2.47100181       6.44966856       9.46378182
Br      -2.36972030       7.57957479      13.46619317
H       -6.36135469       4.07546604       4.60242903
H       -5.52930951       5.18483034       3.49653884
H       -4.46447481       4.10811951       6.17546539
H       -4.96387801       5.77864784       5.81627706
H       -4.11436663       1.20672586       1.78380610
H       -2.69925977      -0.17912398       0.40650984
H        0.74684312       2.13170034       1.54353058
H       -0.65470894       3.54229822       2.94930048
H       -0.50363310       8.90180671       4.57554605
H       -2.25097011       8.90005193       4.88156390
H       -0.39710891       6.44812043       4.74403463
H       -1.65899012       6.90268490       3.57434366
H       -1.12442337       9.55340942       9.07566869
H       -1.34666318       9.54672840      11.48509334
H       -3.01624425       5.58227002      11.35988224
H       -2.79162867       5.55895451       8.92935005
O        3.32687000      -2.17261573       5.36651132
C        3.73880639      -3.08587170       4.65278508
C        4.82741975      -3.98397374       5.19228779
C        4.59111196      -5.41406231       4.78684409
C        4.41124066      -5.42670913       3.30541077
N        3.83022421      -4.48014263       2.63983546
N        3.36791098      -3.36085717       3.32168044
C        2.52048034      -2.50926873       2.52185701
C        2.00361588      -1.28899655       2.98406465
C        1.19111917      -0.48099532       2.17439573
C        0.88081023      -0.88081023       0.88081023
C        1.37459594      -2.08165246       0.38959392
C        2.18464010      -2.88392825       1.20373644
C        4.89020047      -6.64408011       2.54758498
N        4.83620692      -7.79603905       3.13841307
N        5.27674936      -8.92143738       2.45584345
C        6.00409240      -8.84130775       1.25339507
O        6.34337279      -9.77824619       0.53124374
C        6.44897022      -7.44617257       0.88655046
C        5.34839966      -6.45089711       1.13977971
C        4.96025702     -10.15950670       3.12013091
C        5.55965165     -11.38111847       2.77431647
C        5.24094413     -12.56924665       3.44677184
C        4.31030143     -12.55487684       4.47826965
C        3.70069274     -11.36239382       4.84822198
C        4.02933070     -10.17730894       4.17781256
Br       3.87763103     -14.15663484       5.38122239
H        4.84583830      -3.90850488       6.28490657
H        5.78630896      -3.61421366       4.81015607
H        3.68311061      -5.81769461       5.24725449
H        5.44215337      -6.03526963       5.08137991
H        2.21223144      -0.91285707       3.97981008
H        0.81232098       0.45748107       2.57180572
H        1.14088777      -2.40788418      -0.62038416
H        2.54919019      -3.81674493       0.78037251
H        6.72784427      -7.42548581      -0.17234422
H        7.34176198      -7.21253400       1.47828996
H        4.49374500      -6.61980102       0.47571796
H        5.71748413      -5.43264556       0.98588900
H        6.31036657     -11.45020665       1.99292827
H        5.73189891     -13.49300363       3.15358239
H        2.96861378     -11.33807321       5.65170952
H        3.52570104      -9.26546686       4.48876532
