181
Properties=species:S:1:pos:R:3 pbc="F F F"
C        0.00000000       0.00000000       0.00000000
O        1.89326599       5.09806783      -3.87466324
C        2.96458575       4.50781165      -4.00506578
C        3.95227304       5.02841587      -5.02299237
C        5.36047051       4.93090709      -4.50064076
C        5.56698597       3.52182500      -4.05454958
N        4.64385940       2.79218930      -3.51415360
N        3.36814174       3.32172365      -3.36058320
C        2.50937944       2.51977836      -2.52244828
C        1.15929726       2.82596531      -2.29141451
C        0.35073387       2.01703291      -1.47874344
C        0.88081023       0.88081023      -0.88081023
C        2.21226622       0.54644835      -1.08712775
C        3.01413701       1.35906040      -1.89910737
C        6.95264295       2.93377898      -4.19544363
N        7.97122573       3.72544784      -4.07398547
N        9.24903225       3.19965659      -4.20534134
C        9.48769747       1.90570290      -4.70539486
O       10.57009639       1.32270111      -4.76006523
C        8.26969504       1.22748264      -5.28451557
C        7.06400547       1.46102827      -4.41404274
C       10.29225865       4.11855247      -3.82908352
C       11.64082182       3.91302044      -4.16124434
C       12.63388549       4.83110601      -3.79197112
C       12.29264416       5.97296969      -3.07783406
C       10.96681866       6.20880986      -2.73568004
C        9.97820370       5.29174377      -3.11450472
H        3.71493666       6.07314434      -5.25116876
H        3.82606214       4.44309828      -5.94151827
H        5.51684564       5.59062284      -3.64059124
H        6.07352394       5.19960455      -5.28567442
H        0.67934849       3.69277653      -2.73277358
H       -0.69059802       2.29038294      -1.32686071
H        2.64135539      -0.33942040      -0.62645280
H        4.05135610       1.06165427      -2.03329727
H        8.46253918       0.15247878      -5.36596790
H        8.11448819       1.62298356      -6.29511420
H        7.17435030       0.97766344      -3.43725024
H        6.16566708       1.06981161      -4.90053999
H       11.96417151       3.05160775      -4.73772222
H       13.66535325       4.63912804      -4.07400364
H       10.68695636       7.09697533      -2.17446481
H        8.95328253       5.50508429      -2.82156641
C       13.31323821       6.91418286      -2.69559650
C       14.16798573       7.70244888      -2.37547254
Br      15.55004018       8.97700838      -1.85785917
O       -5.14236948      -1.92270604      -3.80092153
C       -4.59740227      -3.02412197      -3.85593894
C       -5.36367693      -4.17506617      -4.46493818
C       -4.45532040      -5.04442592      -5.29227203
C       -3.29755541      -5.41795070      -4.42785445
N       -2.77853110      -4.63478304      -3.53688817
N       -3.33778932      -3.37881796      -3.33384132
C       -2.52516955      -2.51296209      -2.51347444
C       -2.92936853      -1.22801244      -2.11929611
C       -2.11736494      -0.41740814      -1.31173714
C       -0.88081023      -0.88081023      -0.88081023
C       -0.44815695      -2.14694803      -1.25073733
C       -1.26365830      -2.95073885      -2.05790763
C       -2.66286016      -6.77260758      -4.64639782
N       -2.66126654      -7.26403869      -5.84535381
N       -2.08575844      -8.50880656      -6.05946519
C       -1.72607544      -9.36832851      -5.00439129
O       -1.12156956     -10.43643719      -5.09485598
C       -2.21187513      -8.92385953      -3.64595858
C       -2.02699994      -7.44011416      -3.47196239
C       -1.94183444      -8.84575064      -7.45230956
C       -1.67090170     -10.15085267      -7.89333222
C       -1.54789969     -10.45207592      -9.25698700
C       -1.69087498      -9.44703705     -10.20553589
C       -1.96265340      -8.14509381      -9.80356134
C       -2.09233591      -7.85208123      -8.44003505
H       -6.16758530      -3.77769610      -5.09396836
H       -5.82202411      -4.74240832      -3.64624627
H       -4.07274484      -4.50816070      -6.16715418
H       -4.99188630      -5.93548763      -5.63142898
H       -3.88486800      -0.80700023      -2.41303036
H       -2.46945526       0.57159797      -1.02878835
H        0.51656996      -2.52363309      -0.92132466
H       -0.88624836      -3.93479251      -2.32526677
H       -1.65081143      -9.45823552      -2.87193891
H       -3.26726316      -9.20717157      -3.55815121
H       -0.96633866      -7.16682457      -3.45610074
H       -2.48946984      -7.10908142      -2.53746743
H       -1.57206884     -10.98096429      -7.20046835
H       -1.34451872     -11.47596596      -9.55800024
H       -2.07387797      -7.34892614     -10.53559240
H       -2.29625177      -6.82089704      -8.16278442
C       -1.56108708      -9.75591208     -11.60601842
C       -1.45238970     -10.01459492     -12.77892254
Br      -1.27663525     -10.43286319     -14.67540929
O       -2.18507755       5.37342182       3.30749768
C       -3.09146094       4.65670302       3.72929921
C       -3.98622649       5.19737896       4.82007582
C       -5.41522378       4.78185629       4.59493828
C       -5.41993836       3.29930581       4.42411639
N       -4.47287046       2.63594596       3.84138589
N       -3.36057594       3.32172484       3.36814782
C       -2.50927752       2.52192481       2.52040374
C       -1.29499280       2.98835347       1.99333082
C       -0.48700862       2.17865724       1.18084437
C       -0.88081023       0.88081023       0.88081023
C       -2.07562877       0.38535104       1.38486251
C       -2.87792980       1.19954043       2.19483456
C       -6.62975139       2.53705665       4.91505752
N       -7.78559218       3.12056243       4.86450443
N       -8.90412670       2.43388938       5.31601411
C       -8.81227641       1.23639903       6.05011979
O       -9.74272982       0.51066973       6.39946318
C       -7.41226649       0.88072028       6.48870647
C       -6.42523038       1.13326238       5.38058372
C      -10.14811065       3.08873233       5.00305165
C      -11.36394415       2.73918700       5.61195543
C      -12.55805195       3.40248632       5.29642434
C      -12.55559576       4.42836645       4.35948571
C      -11.36909873       4.80181030       3.74039953
C      -10.17798647       4.14059889       4.06586683
H       -3.91730185       6.29052638       4.83142153
H       -3.60834996       4.82333778       5.77899095
H       -5.82713995       5.23427813       3.68664164
H       -6.03305104       5.07780361       5.44794827
H       -0.92366766       3.98760889       2.19362204
H        0.44672085       2.57942585       0.79394064
H       -2.39711318      -0.62798724       1.15926185
H       -3.80592797       0.77276632       2.56761334
H       -7.38344517      -0.17631213       6.77385283
H       -7.17683635       1.47928814       7.37646145
H       -6.59525708       0.46299892       4.53100797
H       -5.40384559       0.98778724       5.74438585
H      -11.42372855       1.96198054       6.36779240
H      -13.47701837       3.10670640       5.79476016
H      -11.35410202       5.60095782       3.00333667
H       -9.27111939       4.45399218       3.55482165
C      -13.78279958       5.10728684       4.03293115
C      -14.81058278       5.67588267       3.75944171
Br     -16.47242129       6.59525403       3.31723241
O        5.24042700      -2.00588586       3.61968419
C        4.64036591      -3.06944899       3.76764828
C        5.37663397      -4.22774724       4.39930006
C        4.47145047      -4.99699589       5.32357200
C        3.24719617      -5.34972800       4.54643639
N        2.72113131      -4.58764566       3.64142534
N        3.33532769      -3.37890385       3.33621706
C        2.52516065      -2.51363736       2.51280807
C        2.97535454      -1.27747859       2.02384395
C        2.16353077      -0.46662785       1.21635160
C        0.88081023      -0.88081023       0.88081023
C        0.40187906      -2.09789794       1.34606532
C        1.21753822      -2.90217928       2.15258729
C        2.55331848      -6.65166190       4.87688518
N        2.59403092      -7.07616552       6.10046260
N        1.96488287      -8.27220682       6.41694050
C        1.49875210      -9.16576003       5.43428311
O        0.84319526     -10.19076089       5.61890658
C        1.92897865      -8.82464623       4.02806836
C        1.81546031      -7.34439549       3.77922069
C        1.88329372      -8.52395281       7.83264811
C        1.56754764      -9.78532601       8.36221294
C        1.50707846     -10.00425824       9.74562591
C        1.75897153      -8.95896408      10.62551230
C        2.07763785      -7.69866208      10.13500862
C        2.14432681      -7.48829249       8.75183289
H        6.23588487      -3.84368016       4.95968473
H        5.75548608      -4.86428780       3.59090481
H        4.16967591      -4.39273920       6.18564461
H        4.97734113      -5.89769207       5.68376971
H        3.96769334      -0.89683427       2.24037099
H        2.55207134       0.48357718       0.85815148
H       -0.59929943      -2.43576595       1.09192128
H        0.80312940      -3.84683792       2.49634031
H        1.29599596      -9.36717185       3.31781806
H        2.96056011      -9.17264060       3.89938523
H        0.77210489      -7.01173361       3.80542547
H        2.24067285      -7.09193156       2.80341427
H        1.38391171     -10.64486266       7.72472712
H        1.26592025     -10.99681966      10.11574502
H        2.27403419      -6.87154350      10.81281882
H        2.38778420      -6.48719669       8.40495234
C        1.69344247      -9.18312767      12.04644743
C        1.63856188      -9.37086468      13.23648059
Br       1.54982461      -9.67441954      15.16066357
