194
Properties=species:S:1:pos:R:3 pbc="F F F"
O        2.80317001       6.00797185      -4.78456726
C        3.87448977       5.41771567      -4.91496980
C        4.86217707       5.93831989      -5.93289639
C        6.27037453       5.84081111      -5.41054479
C        6.47688999       4.43172903      -4.96445361
N        5.55376343       3.70209333      -4.42405763
N        4.27804577       4.23162768      -4.27048722
C        3.41928347       3.42968238      -3.43235230
C        2.06920128       3.73586934      -3.20131853
C        1.26063790       2.92693694      -2.38864746
C        1.79071426       1.79071426      -1.79071426
C        3.12217025       1.45635237      -1.99703177
C        3.92404103       2.26896443      -2.80901140
C        7.86254698       3.84368300      -5.10534765
N        8.88112975       4.63535187      -4.98388950
N       10.15893628       4.10956062      -5.11524536
C       10.39760149       2.81560693      -5.61529889
O       11.48000041       2.23260513      -5.66996925
C        9.17959906       2.13738666      -6.19441959
C        7.97390950       2.37093230      -5.32394676
C       11.20216267       5.02845649      -4.73898755
C       12.55072584       4.82292446      -5.07114836
C       13.54378952       5.74101003      -4.70187514
C       13.20254818       6.88287372      -3.98773809
C       11.87672268       7.11871388      -3.64558406
C       10.88810772       6.20164780      -4.02440875
Br      14.54133818       8.11753383      -3.48632832
H        4.62484068       6.98304836      -6.16107279
H        4.73596616       5.35300231      -6.85142229
H        6.42674966       6.50052686      -4.55049527
H        6.98342796       6.10950858      -6.19557844
H        1.58925251       4.60268055      -3.64267760
H        0.21930601       3.20028696      -2.23676474
H        3.55125942       0.57048363      -1.53635682
H        4.96126012       1.97155829      -2.94320129
H        9.37244320       1.06238281      -6.27587193
H        9.02439221       2.53288758      -7.20501822
H        8.08425432       1.88756746      -4.34715426
H        7.07557111       1.97971564      -5.81044401
H       12.87407553       3.96151178      -5.64762624
H       14.57525727       5.54903207      -4.98390766
H       11.59686039       8.00687936      -3.08436884
H        9.86318656       6.41498831      -3.73147043
O       -6.18901938      -2.95766250      -4.44902725
C       -5.56690174      -4.00179407      -4.63847944
C       -6.29015106      -5.16240361      -5.28083868
C       -5.38991610      -5.88561427      -6.24620006
C       -4.13814817      -6.22636993      -5.50855453
N       -3.60833253      -5.47375494      -4.59782691
N       -4.24418230      -4.28875895      -4.24721941
C       -3.43503661      -3.42385237      -3.42242917
C       -3.90302621      -2.21184052      -2.89152242
C       -3.09128773      -1.40088264      -2.08405192
C       -1.79071426      -1.79071426      -1.79071426
C       -1.29387642      -2.98352536      -2.29815261
C       -2.10958503      -3.78803851      -3.10439332
C       -3.42101081      -7.50186997      -5.88869685
N       -3.48211206      -7.89704070      -7.12121836
N       -2.83191647      -9.06868982      -7.48313598
C       -2.31931634      -9.97410403      -6.53508694
O       -1.64361036     -10.97739610      -6.76156833
C       -2.72220503      -9.67863955      -5.11056074
C       -2.63889126      -8.20256574      -4.82733156
C       -2.77988635      -9.28340021      -8.90632015
C       -2.44666478     -10.52300262      -9.47513126
C       -2.41573425     -10.70624657     -10.86469388
C       -2.71537036      -9.64631088     -11.71147874
C       -3.05246904      -8.40689186     -11.18165972
C       -3.08941086      -8.23235627      -9.79239714
Br      -2.66923558      -9.89216581     -13.58379895
H       -7.17244696      -4.78645935      -5.81005552
H       -6.63272550      -5.82798672      -4.47967854
H       -5.12493089      -5.25291840      -7.09992250
H       -5.88242180      -6.78964900      -6.61644419
H       -4.90957199      -1.85113084      -3.07390784
H       -3.49392626      -0.46987593      -1.69255552
H       -0.27859998      -3.30218763      -2.07731226
H       -1.68086640      -4.71320529      -3.48194802
H       -2.05836009     -10.22233611      -4.43000173
H       -3.74134162     -10.05559698      -4.96535941
H       -1.60502664      -7.84315501      -4.87079440
H       -3.04544235      -7.98498299      -3.83530542
H       -2.22592520     -11.39305508      -8.86423328
H       -2.15964533     -11.68300680     -11.26554486
H       -3.28618060      -7.56856729     -11.83336069
H       -3.34859345      -7.24655332      -9.41449853
O       -2.66597310       5.39931503       5.53042100
C       -3.83174212       5.10651217       5.26892095
C       -4.92555427       5.64891776       6.15892132
C       -6.12832748       6.04702490       5.34637805
C       -6.49748799       4.87215875       4.50342589
N       -5.63711132       4.05059491       3.99220815
N       -4.28574030       4.23600978       4.25841059
C       -3.42063087       3.42631490       3.43437238
C       -2.02530469       3.39800904       3.58307542
C       -1.21570970       2.58996037       2.77055223
C       -1.79071426       1.79071426       1.79071426
C       -3.16777268       1.79269779       1.61508392
C       -3.97011992       2.60254253       2.42935441
C       -7.96102328       4.66409802       4.18645633
N       -8.71940549       5.70853867       4.07242696
N      -10.06595694       5.53186435       3.78592096
C      -10.69662671       4.27543577       3.85644482
O      -11.85083954       4.00832459       3.52341067
C       -9.85060799       3.18778322       4.47301411
C       -8.43357196       3.26430519       3.97091141
C      -10.75202331       6.75595830       3.46162509
C      -12.15211428       6.85723491       3.43544947
C      -12.79309608       8.06555946       3.12801915
C      -12.04012964       9.19626774       2.83676261
C      -10.65235183       9.13170774       2.85696106
C      -10.01791561       7.92353910       3.17270956
Br     -12.90393717      10.82314494       2.41811821
H       -4.54501220       6.51876581       6.70518382
H       -5.17769177       4.87215160       6.89054739
H       -5.90472084       6.88958611       4.68346484
H       -6.95400854       6.32740008       6.00710636
H       -1.51163844       3.99044837       4.33252385
H       -0.13878674       2.59755301       2.92001795
H       -3.63242577       1.17266912       0.85300498
H       -5.04344639       2.57494356       2.25762976
H      -10.27928254       2.21253381       4.21888159
H       -9.89464878       3.30559905       5.56205018
H       -8.37492688       3.04471749       2.89933167
H       -7.80275675       2.55209272       4.51088129
H      -12.79228292       6.01412012       3.67681052
H      -13.87882133       8.10447662       3.12489904
H      -10.05156014      10.00850318       2.62804527
H       -8.93091777       7.90875204       3.16997549
O        6.30767730      -3.14347876       4.14455306
C        5.61588735      -4.09950922       4.49177867
C        6.29173000      -5.26346623       5.17819712
C        5.43010415      -5.80402608       6.28760020
C        4.08583512      -6.08413530       5.70310221
N        3.53834849      -5.36783488       4.77373100
N        4.24046823      -4.28808401       4.25160843
C        3.43479490      -3.42508862       3.42143463
C        3.95513636      -2.31817402       2.73307877
C        3.14375042      -1.50682470       1.92564718
C        1.79071426      -1.79071426       1.79071426
C        1.24118862      -2.87785668       2.45650909
C        2.05696757      -3.68332340       3.26172589
C        3.29793427      -7.24286166       6.27078170
N        3.44500298      -7.52951557       7.52585257
N        2.73098928      -8.59359978       8.05915320
C        2.04752852      -9.52546588       7.25551290
O        1.30997976     -10.43238022       7.64021482
C        2.33226870      -9.40088321       5.77825341
C        2.35459313      -7.95535675       5.35883868
C        2.80108884      -8.67303719       9.49548068
C        2.41557214      -9.81723185      10.21199467
C        2.50608443      -9.87060483      11.60998542
C        2.98238381      -8.77363032      12.31714586
C        3.37558927      -7.62648954      11.63894181
C        3.29027951      -7.58231503      10.24156973
Br       3.10001796      -8.84406266      14.20111971
H        7.25237355      -4.93065333       5.58593495
H        6.49189752      -6.02915585       4.41933740
H        5.30907262      -5.07388038       7.09481879
H        5.87343094      -6.71536716       6.69971688
H        5.00317701      -2.04400716       2.78742650
H        3.58783129      -0.65935381       1.40917261
H        0.18447323      -3.11295337       2.36067326
H        1.58618618      -4.52367882       3.76615470
H        1.55800577      -9.93521184       5.21748032
H        3.29389065      -9.88849394       5.57991343
H        1.36671578      -7.49283904       5.45942122
H        2.67879732      -7.86936251       4.31757092
H        2.05793162     -10.71260341       9.71267853
H        2.20403938     -10.77709390      12.12706372
H        3.74726977      -6.76017027      12.18066855
H        3.59847882      -6.66510388       9.74606259
C       -0.00445707       0.01189536      -1.78238275
H       -0.66409135       0.67374010      -2.43557963
H        0.65740317      -0.63156657      -2.45157240
C       -0.90989263      -0.90692880      -0.91072765
C        0.90977584       0.90977584      -0.90977584
C       -0.00465871       1.77757030       0.00794375
H       -0.66225468       2.44313916      -0.64384735
H        0.64322798       2.43503045       0.67728295
C       -1.78241447       0.00034974      -0.00472694
H       -2.45427497      -0.65498947       0.64260836
H       -2.43311707       0.67328779      -0.65473579
C       -0.91132561       0.90220522       0.91563759
C       -0.01476271      -0.02253852       1.78660255
H       -0.67934791      -0.69751639       2.42135241
H        0.63392994       0.61504881       2.47327442
C        0.01484550      -1.77751727      -0.01636693
H        0.67870853      -2.42144646      -0.68295456
H       -0.62264859      -2.45592969       0.64226336
C        1.78714474       0.01002794       0.00389507
H        2.44202412       0.67113390       0.66197326
H        2.45385902      -0.65136977      -0.64189061
C        0.91606151      -0.90478549       0.90901405
