170
Properties=species:S:1:pos:R:3 pbc="F F F"
C        1.82742712       1.82742712      -1.82742712
C        2.64121974       2.82304570      -0.98385814
H        1.91103179       3.30165639      -0.31239756
C        3.19109467       3.99199724      -1.88202006
H        2.33525900       4.33931885      -2.47813806
C        4.29751618       3.53241802      -2.85997540
N        4.58425365       4.44351009      -3.94510317
N        3.66838533       4.64722352      -4.91258618
C        4.31242370       5.51907827      -5.69325297
N        5.57823410       5.84276728      -5.29469137
C        5.74076994       5.14184101      -4.20116918
N        6.84650518       5.09923936      -3.43525633
C        3.66265772       5.15768258      -0.99579811
C        3.68039021       2.17023743      -0.02523429
N        4.75209150       1.39970738      -0.61401455
N        4.48017442       0.31149670      -1.35670847
C        5.69716382      -0.04209170      -1.77469455
N        6.71504627       0.75853277      -1.33989161
C        6.10909158       1.63192549      -0.57825972
N        6.69444265       2.64897159       0.08305170
H        1.11771635       2.35469446      -2.47305460
H        2.42467045       1.16642946      -2.45511296
H        4.03230413       2.58357396      -3.33814452
H        5.23219068       3.37815554      -2.32475528
H        3.85092122       5.92511936      -6.58320190
H        7.09887433       4.24320339      -2.94905958
H        7.65895163       5.54449165      -3.85429223
H        3.08563942       5.22071075      -0.06815645
H        4.72523434       5.10504755      -0.74576799
H        4.13199651       2.95281865       0.59319961
H        3.18088276       1.49561957       0.67986715
H        5.84618582      -0.89922314      -2.41957235
H        6.35058852       2.89327609       1.00600081
H        7.71306147       2.58014645       0.09731614
C        3.43532359       6.43612697      -1.61829239
C        3.24493125       7.50682415      -2.13963135
Br       2.93708294       9.23805093      -2.98259235
C       -1.82742712      -1.82742712      -1.82742712
C       -2.26802070      -1.08182090      -3.09828198
H       -2.66246220      -0.11515108      -2.74747247
C       -3.49744649      -1.80160434      -3.76606114
H       -4.21459097      -1.98482343      -2.95330151
C       -3.12985681      -3.16647976      -4.39357303
N       -4.24748559      -4.03350300      -4.69187833
N       -4.96858754      -4.57129002      -3.68831747
C       -5.86545056      -5.28559169      -4.37371269
N       -5.72786810      -5.25541324      -5.73241141
C       -4.69185988      -4.47650249      -5.91541775
N       -4.13813622      -4.14618875      -7.09667589
C       -4.16184915      -0.86476302      -4.78952625
C       -1.10947986      -0.70008457      -4.06629751
N       -0.33916298      -1.77238479      -4.65426567
N        0.34903292      -2.62434968      -3.87306283
C        0.82850770      -3.48764858      -4.77062579
N        0.48218428      -3.22912631      -6.06652862
C       -0.21413128      -2.12565541      -5.97949010
N       -0.78848931      -1.46722960      -7.00464363
H       -2.69017817      -2.06029175      -1.19499549
H       -1.28384900      -2.75457252      -2.00779135
H       -2.48140408      -3.74524752      -3.72737100
H       -2.59017195      -3.01827112      -5.32665842
H       -6.63727643      -5.85179850      -3.87016756
H       -3.13639664      -3.98918887      -7.16555179
H       -4.48670401      -4.68699033      -7.88404116
H       -4.05605701       0.18657300      -4.50502262
H       -3.77723566      -0.99461259      -5.80420162
H       -1.51547146      -0.09362429      -4.88251981
H       -0.38290123      -0.05458810      -3.55914585
H        1.43826218      -4.33170116      -4.47309605
H       -0.79403710      -0.45256435      -6.99126236
H       -0.47636609      -1.80227786      -7.91724783
C       -5.58826079      -1.05315784      -4.84832432
C       -6.78288054      -1.21093850      -4.89756770
Br      -8.71447965      -1.46605648      -4.97719010
C       -1.82742712       1.82742712       1.82742712
C       -1.08537127       2.25946466       3.10328765
H       -0.66713117       1.33224479       3.52570979
C       -2.10110531       2.77567877       4.18832789
H       -2.89621819       2.01821975       4.23827797
C       -2.75300712       4.12628499       3.81061750
N       -3.93968916       4.47356767       4.55961009
N       -5.07208375       3.76172419       4.39438709
C       -5.89569429       4.39516364       5.23389700
N       -5.36138838       5.47247848       5.88182588
C       -4.13320245       5.51917901       5.43139867
N       -3.19585568       6.42834492       5.75680026
C       -1.41325686       2.84003324       5.56284830
C        0.15477279       3.16960152       2.86103320
N       -0.06307039       4.45844159       2.24430146
N       -0.59463528       4.54237801       1.01136630
C       -0.71112467       5.86264025       0.85600174
N       -0.28570524       6.61116933       1.91659609
C        0.15736963       5.71599579       2.76065064
N        0.67999633       5.96309138       3.97726748
H       -2.68287453       1.18981524       2.07277563
H       -2.18804954       2.64911333       1.20905000
H       -3.05840705       4.13662168       2.75899388
H       -2.04361327       4.93900095       3.95248727
H       -6.91753835       4.06894882       5.37275532
H       -2.50353283       6.71668072       5.07092375
H       -3.55226752       7.22127375       6.28419424
H       -0.63422304       2.07801974       5.66226384
H       -0.97751319       3.81844353       5.78009315
H        0.66253034       3.33772930       3.81641659
H        0.88905442       2.65698635       2.22870325
H       -1.12449678       6.29078312      -0.04874486
H        1.45660625       5.39494940       4.29952066
H        0.88475389       6.95184678       4.12879888
C       -2.32161911       2.53139461       6.63672923
C       -3.08237248       2.27290976       7.53610450
Br      -4.31244635       1.85496162       8.99031825
C        1.82742712      -1.82742712       1.82742712
C        2.83928847      -2.62301426       0.98582085
H        2.24703841      -3.09308538       0.18496196
C        3.42594253      -3.82554904       1.81362039
H        2.55910153      -4.33059029       2.26302409
C        4.35924018      -3.37078431       2.95988511
N        4.63548534      -4.36908093       3.96830065
N        3.65273232      -4.78304666       4.79241605
C        4.30940475      -5.66826907       5.54708111
N        5.63996338      -5.80554397       5.27018540
C        5.83317637      -4.96589652       4.28470724
N        7.00112086      -4.71480832       3.66507168
C        4.12480037      -4.82034907       0.87098897
C        3.88924633      -1.75366352       0.23295209
N        4.79259634      -0.94922012       1.02399698
N        4.31533300       0.00746861       1.84051520
C        5.43001265       0.43616661       2.43592062
N        6.57657825      -0.19397266       2.04291975
C        6.16365043      -1.02977207       1.12585430
N        6.93316755      -1.89256247       0.43463251
H        1.12102726      -2.50045470       2.32398345
H        2.27134532      -1.18624120       2.58862635
H        3.93337089      -2.51940341       3.50124830
H        5.32045374      -3.05519334       2.55945442
H        3.80755998      -6.22435757       6.32732494
H        7.19987721      -3.78492849       3.30633160
H        7.81163534      -5.11785583       4.12824433
H        3.66144216      -4.83332348      -0.12025901
H        5.19404302      -4.62548503       0.75652182
H        4.49420805      -2.40435210      -0.40694460
H        3.39073115      -1.05677386      -0.45086984
H        5.40624868       1.22121268       3.18149903
H        6.72109870      -2.06022793      -0.54346283
H        7.93199578      -1.71451718       0.54937881
C        3.98663767      -6.18079887       1.32230641
C        3.87092641      -7.32017557       1.70028476
Br       3.68383110      -9.16245133       2.31144379
C       -0.00445707       0.01189536      -1.78238275
H       -0.66409135       0.67374010      -2.43557963
H        0.65740317      -0.63156657      -2.45157240
C       -0.90989263      -0.90692880      -0.91072765
C        0.90977584       0.90977584      -0.90977584
C       -0.00465871       1.77757030       0.00794375
H       -0.66225468       2.44313916      -0.64384735
H        0.64322798       2.43503045       0.67728295
C       -1.78241447       0.00034974      -0.00472694
H       -2.45427497      -0.65498947       0.64260836
H       -2.43311707       0.67328779      -0.65473579
C       -0.91132561       0.90220522       0.91563759
C       -0.01476271      -0.02253852       1.78660255
H       -0.67934791      -0.69751639       2.42135241
H        0.63392994       0.61504881       2.47327442
C        0.01484550      -1.77751727      -0.01636693
H        0.67870853      -2.42144646      -0.68295456
H       -0.62264859      -2.45592969       0.64226336
C        1.78714474       0.01002794       0.00389507
H        2.44202412       0.67113390       0.66197326
H        2.45385902      -0.65136977      -0.64189061
C        0.91606151      -0.90478549       0.90901405
