178
Properties=species:S:1:pos:R:3 pbc="F F F"
C        1.83148132       1.83148132      -1.83148132
C        2.29135316       3.08433303      -1.07597841
H        2.74331695       2.77174904      -0.12490408
C        3.34332022       3.86104960      -1.88461038
N        4.59813321       3.15390054      -2.01057287
N        4.84969167       2.41278031      -3.10854055
C        6.03983985       1.89132773      -2.79963488
N        6.54532292       2.26317988      -1.58743220
C        5.62971810       3.06750455      -1.10913422
N        5.65851724       3.69993669       0.07642861
C        1.17720854       3.95589207      -0.78578499
C        0.25891714       4.67423984      -0.54661672
C       -0.99594819       5.50350759      -0.26698716
C       -2.01853624       6.09068709      -0.03223459
C       -3.28923383       6.76951360       0.30530524
H       -3.01733339       7.68594007       0.84836066
C       -4.11536563       5.88399811       1.25317200
N       -5.30483611       6.53197964       1.75685324
N       -5.19015012       7.64785610       2.50772803
C       -6.46103539       7.85268517       2.86134285
N       -7.36103721       6.96326279       2.35130605
C       -6.61790882       6.14466384       1.64985786
N       -7.04793100       5.08835525       0.93933327
C       -4.03733067       7.22332689      -0.95011089
Br      -4.68875682       5.73924451      -2.03907334
H        1.23872355       2.06658962      -2.72107570
H        2.66287034       1.18080839      -2.11193234
H        3.56851856       4.82709879      -1.41534114
H        2.98172881       4.08445476      -2.89685045
H        6.55394917       1.21896415      -3.47463393
H        5.21185873       4.60208748       0.19560290
H        6.55453224       3.65224871       0.55754576
H       -3.51992912       5.61850412       2.13695312
H       -4.39755229       4.93467532       0.78662536
H       -6.74097544       8.67550579       3.50656563
H       -6.56808009       4.79983738       0.09266397
H       -8.05894987       5.01909306       0.84809634
H       -4.91851868       7.82351102      -0.70636040
H       -3.39202265       7.81038991      -1.61200586
C       -1.83148132      -1.83148132      -1.83148132
C       -2.77454717      -2.69367005      -0.98344738
H       -3.31477426      -2.03809362      -0.28710220
C       -3.80195201      -3.42006986      -1.86695832
N       -4.75135142      -2.52353412      -2.48772109
N       -4.54330684      -2.08279068      -3.74491501
C       -5.57768737      -1.25238847      -3.90072662
N       -6.41548609      -1.15274976      -2.82769915
C       -5.88647616      -1.96873794      -1.95114277
N       -6.34533024      -2.22296178      -0.71373330
C       -2.03806938      -3.66787244      -0.21294378
C       -1.43105234      -4.47082373       0.42210237
C       -0.54880609      -5.43869054       1.21295007
C        0.19341410      -6.14258524       1.84478570
C        1.12005922      -6.95690326       2.66186951
H        0.49263104      -7.60412390       3.29124684
C        1.93658966      -6.04118101       3.58913088
N        2.76009464      -6.76272054       4.53233561
N        2.17930501      -7.57232032       5.44303736
C        3.23514514      -7.93865797       6.17320590
N        4.43564563      -7.44265128       5.75608611
C        4.12003889      -6.71279408       4.71585804
N        4.97056165      -6.01551919       3.94386655
C        1.96340838      -7.89342288       1.79390739
Br       3.22210645      -6.94929159       0.63762411
H       -1.15108802      -2.42767955      -2.44762130
H       -2.36721239      -1.12209515      -2.46630352
H       -4.38366982      -4.14439689      -1.28289178
H       -3.30819960      -3.98984635      -2.66498806
H       -5.72556076      -0.70126136      -4.82072513
H       -6.20517619      -3.12993782      -0.28322931
H       -7.27396070      -1.85103835      -0.52423613
H        1.26343347      -5.41759863       4.19254328
H        2.56637161      -5.34400875       3.02713947
H        3.12825865      -8.58849693       7.03227357
H        4.78440763      -5.87891678       2.95541583
H        5.95558359      -6.19379157       4.12616112
H        2.56774687      -8.57654059       2.39744098
H        1.33794912      -8.48886594       1.12054371
C       -1.83148132       1.83148132       1.83148132
C       -1.76469221       1.38872303       3.29824936
H       -0.70941469       1.33268680       3.59786859
C       -2.47889275       2.39792932       4.21215812
N       -1.80008276       3.67212615       4.29039772
N       -2.18266113       4.69229088       3.49606052
C       -1.28348625       5.62407821       3.82323800
N       -0.37320983       5.25258940       4.77013578
C       -0.72048273       4.02436262       5.06151152
N       -0.12205929       3.21126045       5.94870558
C       -2.35827050       0.08444046       3.47617464
C       -2.84751386      -0.99055763       3.62281746
C       -3.47145158      -2.38586806       3.68896304
C       -3.92709063      -3.49842935       3.67572415
C       -4.43021267      -4.88930824       3.63407010
H       -4.40934773      -5.25851215       4.66941044
C       -3.47702625      -5.76172674       2.80016097
N       -3.80779906      -7.16816698       2.83065821
N       -3.78103370      -7.83504438       4.00398862
C       -4.01791251      -9.08400772       3.59640214
N       -4.22704384      -9.23260229       2.25647799
C       -4.10158756      -8.01536652       1.79067611
N       -4.22889556      -7.63579871       0.50799414
C       -5.89339042      -4.94700300       3.18971969
Br      -6.15825324      -4.40215617       1.33346396
H       -2.84192778       1.76905239       1.41540870
H       -1.43839348       2.83905773       1.67815985
H       -2.55717867       2.01590040       5.23787942
H       -3.50557532       2.58577711       3.87168158
H       -1.28840581       6.60144704       3.35769440
H       -0.65367893       2.51115981       6.45350458
H        0.56479228       3.67008958       6.54393788
H       -2.45401271      -5.68443120       3.19204037
H       -3.42367762      -5.43106992       1.75788998
H       -4.04239829      -9.91000628       4.29557271
H       -4.58451680      -6.71535868       0.26993520
H       -4.58458828      -8.35614976      -0.11639166
H       -6.30400294      -5.95785739       3.26520719
H       -6.52050150      -4.27430223       3.78417385
C        1.83148132      -1.83148132       1.83148132
C        3.05119625      -2.34434132       1.05612703
H        3.55837798      -1.48543917       0.59615293
C        4.04294553      -3.05245518       1.99357948
N        4.68323071      -2.15262129       2.92675462
N        4.19013200      -2.00757503       4.17330550
C        5.00151576      -1.06641943       4.66286727
N        5.96717451      -0.62236189       3.80639861
C        5.75926952      -1.32538705       2.72170029
N        6.45496103      -1.25302979       1.57403449
C        2.65648478      -3.25505680       0.00734402
C        2.33115414      -4.00568427      -0.85706471
C        1.79759183      -4.93008489      -1.95313015
C        1.32155471      -5.60765875      -2.82482802
C        0.71917517      -6.38570428      -3.92990493
H        1.55577008      -6.78526128      -4.52078534
C       -0.09876402      -5.45151298      -4.83728849
N       -0.59906261      -6.09822725      -6.02887435
N        0.27030484      -6.60709936      -6.92742625
C       -0.55922001      -6.99022242      -7.90069548
N       -1.88547219      -6.78874372      -7.65235199
C       -1.89368987      -6.23601258      -6.46542556
N       -2.97910286      -5.85253050      -5.77233665
C       -0.05387944      -7.59945984      -3.40947329
Br      -1.64519830      -7.11951275      -2.38475342
H        1.19021750      -2.64010731       2.19606406
H        2.10631830      -1.18291162       2.66638114
H        4.84310119      -3.54292955       1.42492776
H        3.54722431      -3.84079998       2.57500972
H        4.88589807      -0.69025095       5.67139823
H        6.56802835      -2.06817404       0.98214092
H        7.31061317      -0.70453720       1.63408481
H        0.52804220      -4.62009554      -5.18651586
H       -0.93644551      -4.99080365      -4.30386046
H       -0.18785285      -7.43218980      -8.81637223
H       -2.98742271      -5.88432407      -4.75780804
H       -3.86660779      -6.14994223      -6.17128757
H       -0.40531898      -8.23998839      -4.22331667
H        0.55785625      -8.20531443      -2.73279757
C       -0.00445707       0.01189536      -1.78238275
H       -0.66409135       0.67374010      -2.43557963
H        0.65740317      -0.63156657      -2.45157240
C       -0.90989263      -0.90692880      -0.91072765
C        0.90977584       0.90977584      -0.90977584
C       -0.00465871       1.77757030       0.00794375
H       -0.66225468       2.44313916      -0.64384735
H        0.64322798       2.43503045       0.67728295
C       -1.78241447       0.00034974      -0.00472694
H       -2.45427497      -0.65498947       0.64260836
H       -2.43311707       0.67328779      -0.65473579
C       -0.91132561       0.90220522       0.91563759
C       -0.01476271      -0.02253852       1.78660255
H       -0.67934791      -0.69751639       2.42135241
H        0.63392994       0.61504881       2.47327442
C        0.01484550      -1.77751727      -0.01636693
H        0.67870853      -2.42144646      -0.68295456
H       -0.62264859      -2.45592969       0.64226336
C        1.78714474       0.01002794       0.00389507
H        2.44202412       0.67113390       0.66197326
H        2.45385902      -0.65136977      -0.64189061
C        0.91606151      -0.90478549       0.90901405
