162
Properties=species:S:1:pos:R:3 pbc="F F F"
C        1.82868227       1.82868227      -1.82868227
C        3.27334453       1.31207876      -1.86689118
H        3.23799974       0.23541589      -2.08903011
C        3.98166288       1.48136269      -0.53364287
C        4.47393048       0.47937691       0.28239604
C        5.07218438       0.98480618       1.47189692
C        5.02145771       2.35817935       1.52920838
S        4.26118410       3.02978971       0.15542030
C        4.04441167       1.98471941      -3.02899595
C        5.39852048       1.31616620      -3.31732170
C        6.23594479       2.03825142      -4.40294410
H        6.36691173       3.07635374      -4.06328072
C        7.62556497       1.41974395      -4.48677927
C        8.83294234       2.03461018      -4.20892039
C        9.94695502       1.16988641      -4.40920642
C        9.55785344      -0.08225230      -4.82680941
S        7.86172380      -0.21033512      -4.97520783
C        5.53165573       2.07357491      -5.76474922
H        1.73612812       2.84899808      -1.44677106
H        1.36274932       1.78126786      -2.81809107
H        4.40192724      -0.57502633       0.04035329
H        5.51359733       0.37122010       2.24746727
H        5.39382884       3.00218471       2.31406904
H        3.42313798       1.91525770      -3.92932327
H        4.19240274       3.05319488      -2.83233828
H        5.21695949       0.27411490      -3.60988464
H        5.99088533       1.27995539      -2.39426726
H        8.91578446       3.06574676      -3.88660887
H       10.98116321       1.45308228      -4.25803272
H       10.18942978      -0.93002620      -5.05442283
H        4.53323743       2.51159598      -5.69890008
H        5.45483368       1.09282693      -6.24141893
C        6.21945224       2.93297960      -6.69316698
C        6.79548182       3.65273103      -7.47071686
Br       7.72687293       4.81650821      -8.72794924
C       -1.82868227      -1.82868227      -1.82868227
C       -3.17378732      -2.12625519      -1.15227195
H       -3.59046786      -1.17078878      -0.80118910
C       -3.02266968      -3.03198856       0.05798980
C       -3.32005594      -2.72364974       1.37279434
C       -3.04825575      -3.80079258       2.26395469
C       -2.55306948      -4.90137641       1.60401720
S       -2.42215299      -4.63557869      -0.07782184
C       -4.17194188      -2.69675735      -2.18942780
C       -5.61678729      -2.74869831      -1.66652277
C       -6.61472433      -3.41615688      -2.64625910
H       -6.22807101      -4.42498518      -2.85349000
C       -7.96991575      -3.58968503      -1.97248742
C       -8.61412262      -4.77898421      -1.68336610
C       -9.88171254      -4.57917454      -1.06516077
C      -10.16553489      -3.24369252      -0.89318314
S       -8.91101719      -2.24161428      -1.47396503
C       -6.72006880      -2.66872449      -3.98118658
H       -1.24591330      -2.72386675      -2.06211721
H       -1.96478849      -1.24967332      -2.74764644
H       -3.71026390      -1.76155117       1.68526745
H       -3.20463132      -3.76779465       3.33507580
H       -2.25948739      -5.85144084       2.02898372
H       -4.14472893      -2.04945215      -3.07353788
H       -3.86151581      -3.69435683      -2.52206325
H       -5.94015359      -1.72583703      -1.43496841
H       -5.64197872      -3.30323026      -0.71989900
H       -8.19951342      -5.75262073      -1.91600595
H      -10.55260406      -5.37450455      -0.76516959
H      -11.05227964      -2.80654742      -0.45499935
H       -5.74553599      -2.54064945      -4.45754806
H       -7.20153209      -1.69096284      -3.89658461
C       -7.47567993      -3.42047327      -4.94944563
C       -8.10850425      -4.05006287      -5.76036259
Br      -9.13172764      -5.06805602      -7.07154672
C       -1.82868227       1.82868227       1.82868227
C       -1.09682557       3.11246319       2.24302571
H       -0.66683823       3.56044703       1.33516048
C        0.04715325       2.83924218       3.20457951
C        1.39253947       3.07485051       2.98860031
C        2.20154277       2.69069074       4.09594567
C        1.45071682       2.17466905       5.12647646
S       -0.21706304       2.15893767       4.75955280
C       -2.10846059       4.13689647       2.81276997
C       -1.50942422       5.54296252       2.97962164
C       -2.46960009       6.55833702       3.64920320
H       -2.75770133       6.12874928       4.62009559
C       -1.73244324       7.85927803       3.94036692
C       -1.47880067       8.41752744       5.18014481
C       -0.77976749       9.65537813       5.09090222
C       -0.51316977      10.00287497       3.78636581
S       -1.10281329       8.84317770       2.68060552
C       -3.74979203       6.78446906       2.83571878
H       -2.14714196       1.21155724       2.67319806
H       -2.70257534       2.05133929       1.20819362
H        1.78295636       3.49911411       2.07038987
H        3.27981000       2.78479859       4.13236157
H        1.80140683       1.80359974       6.07975160
H       -2.95271247       4.19853703       2.11646946
H       -2.51660977       3.79135626       3.76996986
H       -1.19979379       5.90881667       1.99234856
H       -0.59747245       5.48079407       3.58684145
H       -1.79170311       7.96355766       6.11287932
H       -0.49040531      10.26165348       5.94021941
H       -0.00080644      10.88513890       3.42788107
H       -4.27156642       5.84864841       2.62351866
H       -3.58044230       7.31409024       1.89454700
C       -4.71711195       7.55292197       3.57556491
C       -5.52724238       8.19650128       4.19518605
Br      -6.83715477       9.23711459       5.19706102
C        1.82868227      -1.82868227       1.82868227
C        0.99625873      -2.87771787       2.57833787
H        0.34381722      -3.37379371       1.84483481
C        0.10325748      -2.25531524       3.63809572
C       -1.27889183      -2.27135330       3.67844988
C       -1.80289764      -1.58003746       4.80795382
C       -0.80601688      -1.05768004       5.59876552
S        0.74878497      -1.40377734       4.98299120
C        1.92513425      -3.96976954       3.16322324
C        1.15761997      -5.19991016       3.67447825
C        2.05617398      -6.25839633       4.36257000
H        2.57953248      -5.74454546       5.18246826
C        1.19344278      -7.34207828       4.99656714
C        1.08792311      -7.64703072       6.34151909
C        0.20236899      -8.73494930       6.58872956
C       -0.34847820      -9.22435318       5.42653557
S        0.20034957      -8.37618710       4.05005984
C        3.11575881      -6.83719590       3.41702515
H        2.38726890      -1.15772157       2.48690679
H        2.52955823      -2.30013009       1.13241993
H       -1.89115103      -2.75322239       2.92447626
H       -2.85774986      -1.46867782       5.02642221
H       -0.91516892      -0.48657350       6.51053993
H        2.60814104      -4.29111054       2.36846737
H        2.54962809      -3.56158637       3.96672144
H        0.62016712      -5.65045792       2.83033399
H        0.39266920      -4.87938500       4.39305378
H        1.63213939      -7.11990947       7.11609123
H       -0.01661224      -9.14008196       7.56880848
H       -1.04728492     -10.04254018       5.31857115
H        3.72760654      -6.05652965       2.95959730
H        2.69775436      -7.46532072       2.62600446
C        4.07208757      -7.64640886       4.12710240
C        4.87301291      -8.32412471       4.72179209
Br       6.16804143      -9.41993392       5.68335503
C       -0.00445707       0.01189536      -1.78238275
H       -0.66409135       0.67374010      -2.43557963
H        0.65740317      -0.63156657      -2.45157240
C       -0.90989263      -0.90692880      -0.91072765
C        0.90977584       0.90977584      -0.90977584
C       -0.00465871       1.77757030       0.00794375
H       -0.66225468       2.44313916      -0.64384735
H        0.64322798       2.43503045       0.67728295
C       -1.78241447       0.00034974      -0.00472694
H       -2.45427497      -0.65498947       0.64260836
H       -2.43311707       0.67328779      -0.65473579
C       -0.91132561       0.90220522       0.91563759
C       -0.01476271      -0.02253852       1.78660255
H       -0.67934791      -0.69751639       2.42135241
H        0.63392994       0.61504881       2.47327442
C        0.01484550      -1.77751727      -0.01636693
H        0.67870853      -2.42144646      -0.68295456
H       -0.62264859      -2.45592969       0.64226336
C        1.78714474       0.01002794       0.00389507
H        2.44202412       0.67113390       0.66197326
H        2.45385902      -0.65136977      -0.64189061
C        0.91606151      -0.90478549       0.90901405
