133
Properties=species:S:1:pos:R:3 pbc="F F F"
C        0.00000000       0.00000000       0.00000000
C        0.91877825       0.91877825      -0.91877825
C        2.36344051       0.40217474      -0.95698715
H        2.32809572      -0.67448814      -1.17912609
C        3.07175886       0.57145867       0.37626116
C        3.56402646      -0.43052711       1.19230007
C        4.16228036       0.07490215       2.38180094
C        4.11155369       1.44827533       2.43911240
S        3.35128007       2.11988569       1.06532432
C        3.13450764       1.07481538      -2.11909193
C        4.48861645       0.40626218      -2.40741767
C        5.32604077       1.12834739      -3.49304008
H        5.45700771       2.16644971      -3.15337670
C        6.71566095       0.50983992      -3.57687525
C        7.92303832       1.12470616      -3.29901637
C        9.03705100       0.25998238      -3.49930239
C        8.64794941      -0.99215632      -3.91690539
S        6.95181978      -1.12023915      -4.06530381
C        4.62175171       1.16367089      -4.85484520
Br       5.55632759       2.33142746      -6.11637654
H        0.82622410       1.93909406      -0.53686703
H        0.45284530       0.87136384      -1.90818704
H        3.49202322      -1.48493035       0.95025732
H        4.60369331      -0.53868392       3.15737129
H        4.48392481       2.09228068       3.22397306
H        2.51323396       1.00535368      -3.01941924
H        3.28249871       2.14329085      -1.92243425
H        4.30705547      -0.63578913      -2.69998061
H        5.08098131       0.37005136      -1.48436323
H        8.00588044       2.15584273      -2.97670485
H       10.07125918       0.54317825      -3.34812869
H        9.27952575      -1.83993023      -4.14451881
H        3.62333340       1.60169196      -4.78899605
H        4.54492965       0.18292291      -5.33151491
C       -0.91877825      -0.91877825      -0.91877825
C       -2.31091655      -0.30170421      -1.10998163
H       -2.17360481       0.74828504      -1.40741390
C       -3.12688625      -0.31150194       0.17143182
C       -3.59660167       0.78589532       0.86950708
C       -4.31933807       0.42236672       2.04158979
C       -4.38257039      -0.94206131       2.20391509
S       -3.57896513      -1.77524867       0.94837236
C       -3.04529499      -1.00608499      -2.27703497
C       -4.31685724      -0.26456912      -2.72086994
C       -5.12678221      -1.00711291      -3.81353311
H       -5.36474771      -2.00235135      -3.40973507
C       -6.45271836      -0.29643333      -4.05322443
C       -7.72244673      -0.79645835      -3.82785577
C       -8.74619599       0.12937185      -4.17951164
C       -8.22881815       1.31212879      -4.65600911
S       -6.52156469       1.30250996      -4.67782971
C       -4.32901467      -1.20269099      -5.10856214
Br      -5.25805175      -2.39512084      -6.35095900
H       -0.93624358      -1.90945767      -0.45648393
H       -0.37883571      -0.98485183      -1.86870864
H       -3.42315364       1.80946639       0.55685170
H       -4.76646221       1.12668481       2.73213931
H       -4.86195201      -1.49225152       3.00197110
H       -2.35574483      -1.05460271      -3.12765934
H       -3.29205488      -2.04165594      -2.01451300
H       -4.03175670       0.73461573      -3.07410599
H       -4.97092597      -0.11132533      -1.85314460
H       -7.91073690      -1.78970490      -3.43798622
H       -9.80800607      -0.06381260      -4.09074747
H       -8.77231833       2.18334358      -4.99513958
H       -3.37625921      -1.70652638      -4.93123582
H       -4.13933728      -0.27139038      -5.64863981
C       -0.91877825       0.91877825       0.91877825
C       -0.08647473       1.66768119       1.96844647
H        0.75866720       2.14257667       1.44882419
C        0.48880901       0.73507499       3.02069039
C        1.82542122       0.48987205       3.27674845
C        2.01903496      -0.45246850       4.32688502
C        0.82494720      -0.89831552       4.84397933
S       -0.51723037      -0.18075141       4.06936249
C       -0.92674704       2.80818542       2.59348249
C       -0.08551273       3.78172888       3.43505470
C       -0.92055492       4.86809480       4.15877852
H       -1.65906553       4.33880289       4.77896570
C       -0.03217245       5.66294764       5.10725603
C       -0.13022341       5.73133537       6.48520207
C        0.85219458       6.58596622       7.06256414
C        1.67663664       7.13944911       6.10988601
S        1.26612171       6.63031471       4.53269144
C       -1.68531183       5.77137646       3.18357950
Br      -2.95409217       6.92859481       4.12144461
H       -1.68602833       0.26850211       1.34765475
H       -1.39788212       1.61321905       0.22129501
H        2.63313150       0.96154610       2.72842095
H        2.98544243      -0.78862531       4.68170583
H        0.67459141      -1.61388003       5.64070387
H       -1.39360307       3.36888212       1.77552170
H       -1.74404723       2.40262078       3.20155580
H        0.66134490       4.25073406       2.78185779
H        0.47503584       3.21852556       4.19190618
H       -0.88268651       5.20001955       7.05572197
H        0.94697126       6.78717498       8.12236241
H        2.50144668       7.82163464       6.26392638
H       -2.31579147       5.19711034       2.50111960
H       -1.03669140       6.42651776       2.59615831
C        0.91877825      -0.91877825       0.91877825
C        0.48300224      -2.38876828       0.85083187
H        0.38362527      -2.65966185      -0.21055345
C       -0.86538765      -2.62151451       1.51082951
C       -2.02607776      -3.06405117       0.90322587
C       -3.11828024      -3.16167766       1.81198414
C       -2.75992612      -2.79288873       3.08775400
S       -1.11711340      -2.33694715       3.18600769
C        1.58920812      -3.29569567       1.44351117
C        1.36195024      -4.78808699       1.15225907
C        2.39667914      -5.72348007       1.82726903
H        2.35423683      -5.51585192       2.90674538
C        1.98586363      -7.17818175       1.63833074
C        1.63857142      -8.08406106       2.62412837
C        1.32550311      -9.37093826       2.09989441
C        1.43536380      -9.40862728       0.72870740
S        1.91262712      -7.90218646       0.08207086
C        3.83039977      -5.45738706       1.35248096
Br       5.13717266      -6.43552454       2.43143439
H        0.88146166      -0.49480870       1.92591483
H        1.92897102      -0.78425280       0.51917236
H       -2.09230754      -3.30169796      -0.15255488
H       -4.11678647      -3.48247359       1.54195097
H       -3.38508881      -2.76755850       3.96976274
H        2.54457296      -2.99555747       0.99787645
H        1.68489983      -3.13885916       2.52446483
H        1.37064883      -4.93578474       0.06481339
H        0.36104721      -5.07815980       1.49618889
H        1.62092644      -7.83826124       3.67924034
H        1.03782495     -10.22625967       2.69848151
H        1.25976201     -10.25083275       0.07351957
H        4.11848323      -4.41198491       1.48355328
H        4.00502004      -5.74260652       0.31174091
