170
Properties=species:S:1:pos:R:3 pbc="F F F"
C        1.82774611       1.82774611      -1.82774611
C        2.08525895       1.18094793      -3.19244430
H        1.11947709       0.86020407      -3.61049856
C        3.00020198      -0.03085755      -3.07343871
C        4.30204335      -0.10356033      -2.61011752
C        4.83153307      -1.42439090      -2.67758140
C        3.92159664      -2.32094503      -3.18881392
S        2.43881167      -1.57213945      -3.58645712
C        2.67889837       2.23838239      -4.15637878
C        2.86762907       1.70643089      -5.48549077
C        3.02317593       1.26798984      -6.58095851
C        3.20196335       0.76403513      -7.84011742
C        3.35751169       0.32558994      -8.93559415
C        3.54624239      -0.20636156     -10.26470613
C        4.22609228      -1.60071608     -10.26698521
H        4.24644912      -1.92475501     -11.31808239
C        5.67087663      -1.52110869      -9.78105506
C        6.15341703      -1.29352877      -8.50423720
C        7.57711249      -1.28816085      -8.44788258
C        8.14027456      -1.53416081      -9.67775548
S        6.95783015      -1.75215154     -10.89373620
C        3.46757139      -2.67180962      -9.47116225
Br       1.77497403      -3.13248572     -10.32445876
H        2.74434112       2.01688613      -1.26122119
H        1.27296100       2.76566952      -1.92771237
H        4.85766654       0.75068127      -2.24248063
H        5.83102939      -1.70439422      -2.36731069
H        4.05398144      -3.38204743      -3.34982583
H        2.00437561       3.10223062      -4.20405241
H        3.63398164       2.61163125      -3.76597524
H        4.15807975       0.49050797     -10.85191438
H        2.58038995      -0.26393628     -10.77910275
H        5.52155689      -1.12681725      -7.63913876
H        8.15561315      -1.11626984      -7.54823375
H        9.19080482      -1.59569429      -9.92407912
H        3.23272350      -2.37030427      -8.44640457
H        4.02894893      -3.61146023      -9.43019238
C       -1.82774611      -1.82774611      -1.82774611
C       -3.02051008      -2.39017234      -1.04796875
H       -3.51115680      -1.55888110      -0.52014183
C       -2.58091246      -3.43311132      -0.02875936
C       -1.93564502      -4.64004825      -0.23290727
C       -1.71411220      -5.35175014       0.98113876
C       -2.19478929      -4.67009424       2.07541801
S       -2.91051207      -3.18182569       1.63920842
C       -4.05102397      -2.97934959      -2.04328599
C       -5.23717366      -3.45286113      -1.36951594
C       -6.21481118      -3.84312760      -0.81418549
C       -7.33853342      -4.29170775      -0.17587472
C       -8.31617884      -4.68197771       0.37946078
C       -9.50232853      -5.15548925       1.05323083
C       -9.18431878      -6.01374678       2.30570414
H      -10.15591275      -6.24885897       2.76499522
C       -8.52177112      -7.33551652       1.92646463
C       -7.24417511      -7.56856913       1.44861878
C       -6.99221937      -8.94961236       1.20499752
C       -8.07570813      -9.73314150       1.52498040
S       -9.39264547      -8.80511639       2.09834705
C       -8.33873770      -5.29260531       3.36441898
Br      -9.33290818      -3.84115349       4.20711459
H       -1.17756841      -2.60522149      -2.23965854
H       -2.15436107      -1.17163464      -2.64034719
H       -1.63762355      -5.00468010      -1.20852479
H       -1.22680093      -6.31688449       1.04973956
H       -2.16187261      -4.97290416       3.11301693
H       -4.33118780      -2.20807925      -2.77139159
H       -3.59737996      -3.79737268      -2.61683547
H      -10.10387370      -5.75152629       0.35489789
H      -10.12972587      -4.30317315       1.33734260
H       -6.51376512      -6.78800819       1.26789490
H       -6.06075998      -9.34522911       0.81841203
H       -8.16046468     -10.80791981       1.44919483
H       -7.41902304      -4.85533624       2.96553549
H       -8.06856527      -5.96495103       4.18583522
C       -1.82774611       1.82774611       1.82774611
C       -2.41352138       3.00440513       1.04072466
H       -2.86206329       2.61228976       0.11582668
C       -1.34150680       4.02359207       0.67768427
C       -0.52724419       4.77244255       1.50891380
C        0.34013465       5.64007717       0.78478105
C        0.16467135       5.52955820      -0.57542133
S       -1.04077557       4.38729666      -0.97494290
C       -3.55029975       3.65721235       1.86614744
C       -4.19632175       4.72437333       1.13885564
C       -4.72878130       5.60393350       0.53940948
C       -5.34080518       6.61492078      -0.14961007
C       -5.87326872       7.49448850      -0.74906144
C       -6.51929071       8.56164948      -1.47635324
C       -5.51218084       9.53027278      -2.15009220
H       -6.11948764      10.24514634      -2.72485748
C       -4.72060235      10.32540240      -1.11518174
C       -3.72462988       9.89552373      -0.25602815
C       -3.22369199      10.94166032       0.57148190
C       -3.83486766      12.14402950       0.30497207
S       -5.01687125      12.00557920      -0.92303563
C       -4.54859178       8.85191939      -3.13358714
Br      -5.48355276       8.20006690      -4.71667258
H       -1.20810779       2.14122451       2.67311614
H       -2.61374481       1.15966875       2.19292933
H       -0.55154197       4.70916576       2.59012072
H        1.05761183       6.31334350       1.23821419
H        0.68556118       6.06478660      -1.35746558
H       -4.29353666       2.89274815       2.12437383
H       -3.15588910       4.03984185       2.81585717
H       -7.16053966       9.13200984      -0.79204740
H       -7.18975997       8.13870898      -2.23291253
H       -3.36751735       8.87304113      -0.20668008
H       -2.45118549      10.81591136       1.32048021
H       -3.64654205      13.10000920       0.77263841
H       -4.01800565       7.99656998      -2.70575182
H       -3.80422405       9.55892194      -3.51546491
C        1.82774611      -1.82774611       1.82774611
C        2.56607686      -1.00452667       2.88804764
H        1.83385274      -0.35979795       3.39652903
C        3.64690759      -0.13066442       2.26521113
C        4.76502005      -0.50338473       1.54019576
C        5.55488729       0.61397531       1.14381159
C        5.01913243       1.80542158       1.57575467
S        3.57328298       1.57585005       2.45569641
C        3.16195063      -1.95829397       3.95341494
C        3.80230201      -1.23234768       5.02490104
C        4.33007991      -0.63401237       5.90803200
C        4.93671927       0.05372955       6.92312618
C        5.46450180       0.65207023       7.80626420
C        6.10485318       1.37801652       8.87775029
C        7.03424242       2.51124324       8.36936224
H        7.39926596       3.02852014       9.26903068
C        8.24944829       1.95249765       7.63387238
C        8.31810053       1.34595561       6.39198054
C        9.64275136       0.95161676       6.04569962
C       10.55020866       1.28842758       7.02208815
S        9.80432839       2.05899173       8.35407816
C        6.33051469       3.55639744       7.49280678
Br       5.05824346       4.61575624       8.52445985
H        2.50150559      -2.36622188       1.15472096
H        1.13771008      -2.54315923       2.28547359
H        5.01395827      -1.53128951       1.30558065
H        6.47177433       0.54834010       0.57051164
H        5.40610346       2.80288083       1.41853721
H        2.36061620      -2.58301246       4.36702998
H        3.88056790      -2.64390716       3.48711306
H        6.69256043       0.68100644       9.48894810
H        5.34365338       1.79487289       9.54677592
H        7.45911116       1.17752342       5.75229067
H        9.91333564       0.45012049       5.12436190
H       11.61757356       1.11870840       7.02032450
H        5.77515227       3.12268326       6.65635480
H        7.04276454       4.28389786       7.08881440
C       -0.00445707       0.01189536      -1.78238275
H       -0.66409135       0.67374010      -2.43557963
H        0.65740317      -0.63156657      -2.45157240
C       -0.90989263      -0.90692880      -0.91072765
C        0.90977584       0.90977584      -0.90977584
C       -0.00465871       1.77757030       0.00794375
H       -0.66225468       2.44313916      -0.64384735
H        0.64322798       2.43503045       0.67728295
C       -1.78241447       0.00034974      -0.00472694
H       -2.45427497      -0.65498947       0.64260836
H       -2.43311707       0.67328779      -0.65473579
C       -0.91132561       0.90220522       0.91563759
C       -0.01476271      -0.02253852       1.78660255
H       -0.67934791      -0.69751639       2.42135241
H        0.63392994       0.61504881       2.47327442
C        0.01484550      -1.77751727      -0.01636693
H        0.67870853      -2.42144646      -0.68295456
H       -0.62264859      -2.45592969       0.64226336
C        1.78714474       0.01002794       0.00389507
H        2.44202412       0.67113390       0.66197326
H        2.45385902      -0.65136977      -0.64189061
C        0.91606151      -0.90478549       0.90901405
