178
Properties=species:S:1:pos:R:3 pbc="F F F"
C        1.82774611       1.82774611      -1.82774611
C        2.08525895       1.18094793      -3.19244430
H        1.11947709       0.86020407      -3.61049856
C        3.00020198      -0.03085755      -3.07343871
C        4.30204335      -0.10356033      -2.61011752
C        4.83153307      -1.42439090      -2.67758140
C        3.92159664      -2.32094503      -3.18881392
S        2.43881167      -1.57213945      -3.58645712
C        2.67889837       2.23838239      -4.15637878
C        2.86762907       1.70643089      -5.48549077
C        3.02317593       1.26798984      -6.58095851
C        3.20196335       0.76403513      -7.84011742
C        3.35751169       0.32558994      -8.93559415
C        3.54624239      -0.20636156     -10.26470613
C        4.22609228      -1.60071608     -10.26698521
H        4.24644912      -1.92475501     -11.31808239
C        5.67087663      -1.52110869      -9.78105506
C        6.15341703      -1.29352877      -8.50423720
C        7.57711249      -1.28816085      -8.44788258
C        8.14027456      -1.53416081      -9.67775548
S        6.95783015      -1.75215154     -10.89373620
C        3.46757139      -2.67180962      -9.47116225
H        2.74434112       2.01688613      -1.26122119
H        1.27296100       2.76566952      -1.92771237
H        4.85766654       0.75068127      -2.24248063
H        5.83102939      -1.70439422      -2.36731069
H        4.05398144      -3.38204743      -3.34982583
H        2.00437561       3.10223062      -4.20405241
H        3.63398164       2.61163125      -3.76597524
H        4.15807975       0.49050797     -10.85191438
H        2.58038995      -0.26393628     -10.77910275
H        5.52155689      -1.12681725      -7.63913876
H        8.15561315      -1.11626984      -7.54823375
H        9.19080482      -1.59569429      -9.92407912
H        3.23272350      -2.37030427      -8.44640457
H        4.02894893      -3.61146023      -9.43019238
C        2.21810067      -3.01187945     -10.10106339
C        1.17166895      -3.29668793     -10.62860559
Br      -0.52032264      -3.75719917     -11.48159671
C       -1.82774611      -1.82774611      -1.82774611
C       -1.98422180      -3.23402164      -1.24040773
H       -2.27077349      -3.13673371      -0.18267252
C       -0.68619822      -4.02566409      -1.33092084
C        0.03785438      -4.39600949      -2.45044543
C        1.19611427      -5.15799169      -2.12284615
C        1.32395799      -5.34738872      -0.76603479
S        0.05271925      -4.61173590       0.10588732
C       -3.13909338      -3.96700598      -1.96756018
C       -3.38740956      -5.27159821      -1.40054295
C       -3.59207562      -6.34685314      -0.93319553
C       -3.82732534      -7.58277749      -0.39601306
C       -4.03199258      -8.65804152       0.07133833
C       -4.28030876      -9.96263375       0.63835555
C       -2.98150984     -10.77913779       0.86828621
H       -3.29412218     -11.70997020       1.36431588
C       -2.31777893     -11.16087336      -0.45217072
C       -1.64699069     -10.35865661      -1.35847815
C       -1.16560943     -11.08625163      -2.48497316
C       -1.46244286     -12.42572024      -2.39570613
S       -2.33130057     -12.79757877      -0.97053548
C       -1.96000524     -10.09153408       1.78461529
H       -1.37409507      -1.82508503      -2.82326834
H       -2.78765768      -1.30440629      -1.87427892
H       -0.24832709      -4.13924936      -3.46325199
H        1.90142335      -5.54925786      -2.84611135
H        2.10283196      -5.88338867      -0.24120312
H       -4.05134945      -3.36171133      -1.89759786
H       -2.91174773      -4.06317849      -3.03666190
H       -4.94480421     -10.52817291      -0.02752499
H       -4.82356150      -9.85602522       1.58403030
H       -1.50861262      -9.29048757      -1.23477821
H       -0.62571571     -10.64682828      -3.31503306
H       -1.21271162     -13.20710870      -3.09936934
H       -1.71273855      -9.07188680       1.47580155
H       -1.02868104     -10.66481925       1.84581921
C       -2.43723724     -10.01088748       3.14084010
C       -2.83691904      -9.94334595       4.27667838
Br      -3.48317072      -9.83413700       6.11323282
C       -1.82774611       1.82774611       1.82774611
C       -1.67134929       3.31074019       1.47656170
H       -1.78134043       3.42133721       0.38750209
C       -0.30652349       3.84329534       1.89296432
C        0.25897859       3.91366320       3.15391592
C        1.55582197       4.50309533       3.13745021
C        1.94340720       4.86503923       1.86783349
S        0.74837022       4.49735763       0.70414193
C       -2.81415695       4.11772171       2.14178088
C       -2.76568141       5.51462753       1.77924178
C       -2.72572811       6.66596946       1.48042671
C       -2.67980597       7.98935064       1.13695928
C       -2.63985180       9.14070223       0.83814175
C       -2.59137626      10.53760805       0.47560265
C       -1.16658416      11.14139640       0.58438086
H       -1.24803030      12.17503417       0.21671202
C       -0.69298113      11.20374373       2.03409816
C       -0.31494172      10.17288062       2.87630312
C        0.06561210      10.63218267       4.17026364
C       -0.01084946      12.00115517       4.27186460
S       -0.55515099      12.72362979       2.82063404
C       -0.11417518      10.42956702      -0.27681817
H       -1.55895684       1.60000547       2.86348613
H       -2.84759233       1.47768080       1.64106976
H       -0.23307234       3.56419534       4.05356076
H        2.17484640       4.65539985       4.01339242
H        2.87174041       5.32920565       1.56429459
H       -3.77946112       3.69673079       1.83446673
H       -2.76395539       4.01462981       3.23300292
H       -3.27067450      11.10553589       1.12429171
H       -2.97214182      10.66713958      -0.54372498
H       -0.31593880       9.12691082       2.59102879
H        0.38279427       9.98852109       4.98185023
H        0.22534235      12.61522558       5.12930644
H       -0.07697695       9.34832081      -0.11647396
H        0.88772610      10.83538416      -0.09997697
C       -0.35565552      10.63335251      -1.68172341
C       -0.55789529      10.80402286      -2.85833154
Br      -0.88489991      11.07998238      -4.76080738
C        1.82774611      -1.82774611       1.82774611
C        2.16968682      -1.13713542       3.15182893
H        1.23663080      -0.75851320       3.59503573
C        3.12762475       0.02853634       2.94369473
C        4.41034784       0.02644273       2.42469542
C        4.99595409       1.32507730       2.41384679
C        4.14624147       2.27993110       2.92315515
S        2.65235995       1.61215396       3.41292335
C        2.76014266      -2.17857094       4.13494594
C        3.02719092      -1.60112315       5.43123665
C        3.24728799      -1.12518329       6.49965300
C        3.50027105      -0.57812639       7.72771846
C        3.72037015      -0.10218209       8.79614354
C        3.98741841       0.47526570      10.09243425
C        4.72334816       1.83819236      10.00720562
H        4.80190413       2.20389265      11.04176502
C        6.14155072       1.67701643       9.46628873
C        6.55931162       1.37684477       8.18165861
C        7.97787625       1.30829481       8.06725277
C        8.60272880       1.58021240       9.26135283
S        7.48329858       1.89824661      10.51436285
C        3.97604943       2.90720724       9.19808183
H        2.71074925      -2.07898048       1.23271871
H        1.23975003      -2.73619885       1.99039402
H        4.91424515      -0.86513334       2.07144996
H        5.99190854       1.54912503       2.05116235
H        4.32879033       3.34011091       3.03308042
H        2.05342062      -3.01010264       4.24713538
H        3.68154828      -2.60801459       3.72202524
H        4.59471576      -0.22246440      10.68332194
H        3.04762031       0.59513468      10.64307079
H        5.88473159       1.20197190       7.35111871
H        8.50984107       1.07507686       7.15281284
H        9.66447033       1.60681531       9.46153465
H        3.68542953       2.57425316       8.19764744
H        4.57322001       3.81952143       9.09398250
C        2.76965443       3.32593965       9.86356983
C        1.75929862       3.67662804      10.42091603
Br       0.12563873       4.24366151      11.32209769
C       -0.00445707       0.01189536      -1.78238275
H       -0.66409135       0.67374010      -2.43557963
H        0.65740317      -0.63156657      -2.45157240
C       -0.90989263      -0.90692880      -0.91072765
C        0.90977584       0.90977584      -0.90977584
C       -0.00465871       1.77757030       0.00794375
H       -0.66225468       2.44313916      -0.64384735
H        0.64322798       2.43503045       0.67728295
C       -1.78241447       0.00034974      -0.00472694
H       -2.45427497      -0.65498947       0.64260836
H       -2.43311707       0.67328779      -0.65473579
C       -0.91132561       0.90220522       0.91563759
C       -0.01476271      -0.02253852       1.78660255
H       -0.67934791      -0.69751639       2.42135241
H        0.63392994       0.61504881       2.47327442
C        0.01484550      -1.77751727      -0.01636693
H        0.67870853      -2.42144646      -0.68295456
H       -0.62264859      -2.45592969       0.64226336
C        1.78714474       0.01002794       0.00389507
H        2.44202412       0.67113390       0.66197326
H        2.45385902      -0.65136977      -0.64189061
C        0.91606151      -0.90478549       0.90901405
