162
Properties=species:S:1:pos:R:3 pbc="F F F"
F        4.11628928       5.75892590       3.74112882
C        4.54545374       5.36816017       2.53465764
C        5.77746709       4.73763692       2.41742987
C        6.22044254       4.33081697       1.16210122
C        5.42423777       4.55261616       0.03374242
C        4.17222513       5.18450935       0.14549872
C        3.74513189       5.59520265       1.41795958
C        3.27148786       5.40237668      -1.04889981
H        2.33305754       5.87913061      -0.74200386
C        2.95835940       4.14032624      -1.86462160
C        2.18392156       3.10136127      -1.03852606
C        1.83849046       1.83849046      -1.83849046
H        1.19573531       2.11728898      -2.68166038
C        2.98099336       0.97414144      -2.32285629
C        4.20319973       0.86757573      -1.63641749
C        5.22934418       0.04524039      -2.11537590
C        5.04323326      -0.69769874      -3.27807145
C        3.83328490      -0.61307529      -3.95203645
C        2.81027712       0.20991744      -3.49053451
F        3.64505713      -1.33696604      -5.06384894
H        6.38274101       4.57201218       3.30270298
H        7.18687109       3.84362879       1.05835277
H        5.79665550       4.23109844      -0.93747138
H        2.78825187       6.08931361       1.55977133
H        3.88027667       3.70069344      -2.26166983
H        2.35162507       4.41277921      -2.73820920
H        1.25408963       3.57086502      -0.68868066
H        2.74281860       2.83949092      -0.13242126
H        4.37649043       1.41529244      -0.71251321
H        6.16971064      -0.02138480      -1.57366570
H        5.82665959      -1.34618579      -3.65646319
H        1.87675621       0.23524504      -4.04653241
C        3.88746279       6.37647717      -1.91220920
C        4.40334179       7.19228634      -2.63523082
Br       5.23747451       8.51138076      -3.80429563
F        0.75690035       1.01485208      -7.90583879
C        0.23001705      -0.13695088      -7.47202244
C        0.91458949      -1.32640109      -7.68586254
C        0.36533653      -2.52227342      -7.23222140
C       -0.86248699      -2.51830172      -6.56232279
C       -1.55846393      -1.31675432      -6.33601750
C       -0.99356134      -0.12139008      -6.80742354
C       -2.86720896      -1.27507122      -5.58048417
H       -3.22503939      -0.24298996      -5.48616266
C       -2.83737941      -1.93230313      -4.19362470
C       -1.86993278      -1.21418520      -3.23969090
C       -1.83849046      -1.83849046      -1.83849046
H       -2.83771635      -1.76306393      -1.39390439
C       -1.31906151      -3.25261411      -1.70631547
C       -0.34736620      -3.79354046      -2.56628629
C        0.11345531      -5.10437306      -2.39904272
C       -0.37627318      -5.88897431      -1.35835848
C       -1.32186961      -5.35703269      -0.49334376
C       -1.79500969      -4.05851979      -0.65719959
F       -1.78565021      -6.10408300       0.51779318
H        1.86664711      -1.31236778      -8.20632954
H        0.88924734      -3.45978331      -7.40161115
H       -1.27375562      -3.46778063      -6.22368908
H       -1.49013721       0.83354885      -6.66120581
H       -2.57358460      -2.99269088      -4.27636446
H       -3.84369655      -1.90347875      -3.75543819
H       -2.18882516      -0.16574847      -3.15906168
H       -0.86130781      -1.18502120      -3.66840177
H        0.07502131      -3.20288478      -3.37643260
H        0.86216433      -5.50760602      -3.07654985
H       -0.02181766      -6.90394723      -1.21117210
H       -2.52794247      -3.68223016       0.05163897
C       -3.87619112      -1.91851508      -6.38144298
C       -4.72121367      -2.45739930      -7.05224598
Br      -6.08754368      -3.32872952      -8.13687770
F        1.56281529      -0.15414650       7.85104815
C        0.88746781       0.89683289       7.36959120
C        1.46727580       2.15842612       7.40652382
C        0.76360751       3.24909842       6.90366739
C       -0.51310879       3.06817841       6.36182430
C       -1.10414275       1.79233445       6.31475855
C       -0.38341584       0.70533571       6.83362340
C       -2.46502903       1.55826771       5.69946761
H       -2.72586514       0.49390244       5.73442443
C       -2.62552335       2.07484436       4.26293954
C       -1.68156519       1.35581963       3.28642406
C       -1.83849046       1.83849046       1.83849046
H       -2.86129124       1.62967770       1.50371574
C       -1.47577078       3.27357074       1.52864957
C       -0.48895993       3.98237051       2.23586251
C       -0.17724384       5.30633573       1.90638089
C       -0.83405324       5.93663393       0.85291880
C       -1.79634494       5.23858921       0.13731191
C       -2.12179457       3.92538735       0.46354716
F       -2.42105761       5.83693994      -0.88605752
H        2.45903314       2.28185479       7.82922856
H        1.20516135       4.24214340       6.93516506
H       -1.04526066       3.93850246       5.98146221
H       -0.79406654      -0.30022285       6.82395046
H       -2.46172402       3.15764264       4.22327328
H       -3.65939278       1.91220932       3.93101138
H       -1.90095991       0.28011057       3.33256483
H       -0.64051629       1.46025756       3.61395693
H        0.06112991       3.51536100       3.05006499
H        0.58579646       5.84051520       2.46727280
H       -0.59662184       6.95981017       0.58050497
H       -2.87469290       3.41622507      -0.13238432
C       -3.45652947       2.18439123       6.53522847
C       -4.28691109       2.70876968       7.23517818
Br      -5.62956794       3.55664528       8.36693768
F        6.05057238      -3.74933008      -3.66581610
C        6.12715965      -3.59045562      -2.33865899
C        7.11968951      -2.78029010      -1.80230547
C        7.19593302      -2.61545921      -0.42223394
C        6.27427231      -3.25799332       0.41084588
C        5.26201927      -4.07469959      -0.12548311
C        5.20514766      -4.23591193      -1.51868462
C        4.22725158      -4.75006894       0.74544382
H        3.51278598      -5.31047026       0.13093577
C        3.46139494      -3.81261312       1.68929919
C        2.63215391      -2.77429370       0.91736127
C        1.83849046      -1.83849046       1.83849046
H        1.13211913      -2.43530845       2.42725709
C        2.61711553      -0.91374926       2.74712629
C        3.88546378      -0.40599363       2.41573554
C        4.56494402       0.45749572       3.28251218
C        3.97938980       0.84163353       4.48584970
C        2.71973279       0.36016395       4.81267723
C        2.03999021      -0.50761931       3.96311955
F        2.14675697       0.73827785       5.96346092
H        7.82642645      -2.28792982      -2.46230607
H        7.97402328      -1.98987276       0.00825108
H        6.35980388      -3.11824823       1.48717321
H        4.44524177      -4.85687719      -1.98432480
H        4.15171092      -3.31279163       2.37813739
H        2.78174677      -4.40384380       2.31702292
H        1.93244698      -3.31560115       0.26558718
H        3.27530550      -2.19446235       0.24496293
H        4.36442590      -0.66579362       1.47407656
H        5.54722413       0.83689645       3.01166386
H        4.49060291       1.51738012       5.16371420
H        1.05129871      -0.84997061       4.25726434
C        4.88284502      -5.76679994       1.52650421
C        5.43190453      -6.61831215       2.18064228
Br       6.31968731      -7.99513537       3.23832822
C       -0.00445707       0.01189536      -1.78238275
H       -0.66409135       0.67374010      -2.43557963
H        0.65740317      -0.63156657      -2.45157240
C       -0.90989263      -0.90692880      -0.91072765
C        0.90977584       0.90977584      -0.90977584
C       -0.00465871       1.77757030       0.00794375
H       -0.66225468       2.44313916      -0.64384735
H        0.64322798       2.43503045       0.67728295
C       -1.78241447       0.00034974      -0.00472694
H       -2.45427497      -0.65498947       0.64260836
H       -2.43311707       0.67328779      -0.65473579
C       -0.91132561       0.90220522       0.91563759
C       -0.01476271      -0.02253852       1.78660255
H       -0.67934791      -0.69751639       2.42135241
H        0.63392994       0.61504881       2.47327442
C        0.01484550      -1.77751727      -0.01636693
H        0.67870853      -2.42144646      -0.68295456
H       -0.62264859      -2.45592969       0.64226336
C        1.78714474       0.01002794       0.00389507
H        2.44202412       0.67113390       0.66197326
H        2.45385902      -0.65136977      -0.64189061
C        0.91606151      -0.90478549       0.90901405
