178
Properties=species:S:1:pos:R:3 pbc="F F F"
F        6.70218560       9.27347563      -0.72719261
C        5.77561692       9.63645234      -1.62399723
C        4.82096972      10.58175949      -1.27392301
C        3.86024606      10.95901839      -2.20756762
C        3.85731391      10.37746907      -3.47914934
C        4.81306799       9.40750428      -3.83789306
C        5.78615722       9.05562971      -2.88975100
C        4.75802588       8.78689298      -5.21960454
H        3.74563796       8.89547549      -5.62915118
C        5.19116551       7.31856875      -5.35616428
C        4.40418340       6.44646178      -4.51638810
C        3.75554860       5.72765578      -3.82423720
C        3.00999768       4.90144052      -3.02865931
C        2.36136288       4.18263452      -2.33650840
C        1.57438077       3.31052755      -1.49673222
C        1.83430102       1.83430102      -1.83430102
H        1.47794184       1.62494465      -2.85058302
C        3.27324188       1.38303262      -1.68598257
C        3.94960192       0.84616102      -2.79694260
C        5.29457382       0.47391468      -2.71034001
C        5.98255318       0.62903740      -1.51004722
C        5.31999193       1.15275303      -0.40756806
C        3.98189675       1.53025040      -0.48279527
F        5.98208149       1.30503186       0.74693586
H        4.83436068      11.01810610      -0.28048612
H        3.11182456      11.70360840      -1.94775933
H        3.09572794      10.68826145      -4.19311642
H        6.55965162       8.32579882      -3.10684606
H        6.25544656       7.20129487      -5.11730520
H        5.08728434       7.00609831      -6.40328124
H        0.50856618       3.53497044      -1.62952590
H        1.79627643       3.51347564      -0.44163954
H        3.43605061       0.72634158      -3.74964740
H        5.80455333       0.06961896      -3.58129604
H        7.02775826       0.34945346      -1.42714382
H        3.51150411       1.94123350       0.40585777
C        5.58700942       9.58835054      -6.08218907
C        6.28128314      10.25957124      -6.80460361
Br       7.40386503      11.34487834      -7.97268682
F       -4.73273839      -1.66043019     -10.30968526
C       -5.86096907      -1.58355246      -9.59154496
C       -6.61959802      -0.42162927      -9.63542494
C       -7.79243708      -0.34426891      -8.89012608
C       -8.18847886      -1.42679379      -8.09865968
C       -7.41767262      -2.60368128      -8.03711143
C       -6.24936689      -2.67025556      -8.81191548
C       -7.87316095      -3.74347402      -7.14788843
H       -8.54401864      -3.35540189      -6.37084411
C       -6.78638244      -4.60025857      -6.47925753
C       -5.90641217      -3.80454554      -5.65607557
C       -5.18112658      -3.14871619      -4.97759880
C       -4.34746051      -2.39489234      -4.19774465
C       -3.62217492      -1.73906300      -3.51926789
C       -2.74220465      -0.94334997      -2.69608593
C       -1.83430102      -1.83430102      -1.83430102
H       -2.44743295      -2.39118226      -1.11485430
C       -0.94648994      -2.78853173      -2.60723540
C       -1.04684944      -4.17243401      -2.37342209
C       -0.28458983      -5.08435914      -3.10987954
C        0.59284518      -4.62584990      -4.08863309
C        0.70165493      -3.26097137      -4.32099659
C       -0.05482062      -2.34367025      -3.59645155
F        1.54358114      -2.81915679      -5.26460184
H       -6.29388708       0.41112160     -10.25018741
H       -8.39887394       0.55754936      -8.92186770
H       -9.10992693      -1.34324235      -7.52393653
H       -5.61798519      -3.55306188      -8.82124943
H       -6.19994234      -5.14360630      -7.23049799
H       -7.26285456      -5.37237070      -5.86143863
H       -3.33731497      -0.28910170      -2.04664584
H       -2.14474055      -0.27651715      -3.33013390
H       -1.73481083      -4.55579285      -1.62143591
H       -0.38162901      -6.15099010      -2.92284922
H        1.18826571      -5.32036946      -4.67225179
H        0.06185003      -1.28740335      -3.82132652
C       -8.70406207      -4.60514989      -7.94833707
C       -9.39994176      -5.32680343      -8.61871280
Br     -10.52512036      -6.49365617      -9.70265366
F       -1.09295340       5.75355945       9.85634099
C       -2.11580564       4.90351097      10.01674988
C       -1.97623165       3.82305926      10.87736132
C       -3.04062857       2.94201720      11.04418631
C       -4.23073707       3.14452926      10.33866600
C       -4.37593839       4.22959974       9.45292720
C       -3.29885556       5.11859269       9.31408968
C       -5.67574002       4.39725171       8.69153166
H       -6.19679846       3.43269516       8.64077102
C       -5.59795951       4.99164097       7.27629805
C       -4.74905823       4.20734983       6.41062521
C       -4.04938516       3.56093372       5.69712270
C       -3.24516032       2.81793284       4.87700435
C       -2.54548726       2.17151672       4.16350183
C       -1.69658598       1.38722558       3.29782899
C       -1.83430102       1.83430102       1.83430102
H       -2.85108365       1.62012683       1.48225903
C       -1.48829911       3.28544875       1.56850922
C       -2.45507149       4.13617369       1.00146035
C       -2.18875327       5.49342918       0.79664605
C       -0.94988764       6.01975948       1.15199069
C        0.01142906       5.18499156       1.70675053
C       -0.24354482       3.83268835       1.91870924
F        1.20271863       5.69127882       2.05161730
H       -1.04324500       3.67766019      11.41204771
H       -2.94607328       2.09628709      11.72083191
H       -5.05000983       2.44190746      10.48518852
H       -3.35032293       5.98268766       8.65928591
H       -5.23923240       6.02792273       7.30689150
H       -6.60747200       5.04105901       6.84813289
H       -1.96294750       0.32627194       3.38384307
H       -0.65452647       1.46474821       3.63211692
H       -3.43543275       3.75020106       0.72640578
H       -2.95065294       6.13864253       0.36617286
H       -0.72862034       7.07172704       1.00400815
H        0.53913947       3.22387619       2.36214312
C       -6.53477053       5.23291151       9.48986698
C       -7.25420859       5.93277659      10.15847281
Br      -8.41747907       7.06439923      11.23955189
F       10.63049137      -3.01057418       3.06178829
C       10.21417993      -4.20397282       2.61791374
C       10.64188353      -4.65740894       1.37735976
C       10.20982394      -5.89834679       0.91866134
C        9.34411859      -6.66842976       1.70138398
C        8.89400271      -6.20999230       2.95447033
C        9.35729087      -4.96552137       3.40872569
C        7.93779931      -7.06789143       3.75883266
H        7.41835888      -7.76397055       3.08793521
C        6.89405989      -6.34599497       4.62584368
C        6.05292954      -5.47474439       3.83935935
C        5.35965744      -4.75664744       3.19113670
C        4.56279542      -3.93124428       2.44605782
C        3.86952332      -3.21314733       1.79783516
C        3.02839297      -2.34189674       1.01135084
C        1.83430102      -1.83430102       1.83430102
H        1.18332087      -2.67933055       2.09081809
C        2.19655516      -1.06014366       3.08555825
C        1.74164478      -1.51353725       4.33752350
C        2.10531193      -0.85653782       5.51697876
C        2.92616245       0.26652178       5.46199713
C        3.37427299       0.72340774       4.22944777
C        3.02167126       0.07534896       3.04862011
F        4.16651241       1.80226027       4.17592535
H       11.30871438      -4.04379295       0.78044557
H       10.54357534      -6.26756634      -0.04794940
H        9.01920288      -7.63621742       1.32168551
H        9.06064531      -4.56058292       4.37106827
H        7.37949471      -5.77067359       5.42387834
H        6.26969941      -7.09057621       5.13638828
H        2.66265028      -2.88161681       0.12879542
H        3.62144922      -1.50254623       0.62739615
H        1.10841039      -2.39667462       4.40695458
H        1.75264442      -1.22606846       6.47675545
H        3.22149056       0.78530145       6.36816642
H        3.40416823       0.46824823       2.11095984
C        8.73392586      -7.91137738       4.61224579
C        9.40068185      -8.61779686       5.32697928
Br      10.47876989      -9.76001742       6.48264289
C       -0.00445707       0.01189536      -1.78238275
H       -0.66409135       0.67374010      -2.43557963
H        0.65740317      -0.63156657      -2.45157240
C       -0.90989263      -0.90692880      -0.91072765
C        0.90977584       0.90977584      -0.90977584
C       -0.00465871       1.77757030       0.00794375
H       -0.66225468       2.44313916      -0.64384735
H        0.64322798       2.43503045       0.67728295
C       -1.78241447       0.00034974      -0.00472694
H       -2.45427497      -0.65498947       0.64260836
H       -2.43311707       0.67328779      -0.65473579
C       -0.91132561       0.90220522       0.91563759
C       -0.01476271      -0.02253852       1.78660255
H       -0.67934791      -0.69751639       2.42135241
H        0.63392994       0.61504881       2.47327442
C        0.01484550      -1.77751727      -0.01636693
H        0.67870853      -2.42144646      -0.68295456
H       -0.62264859      -2.45592969       0.64226336
C        1.78714474       0.01002794       0.00389507
H        2.44202412       0.67113390       0.66197326
H        2.45385902      -0.65136977      -0.64189061
C        0.91606151      -0.90478549       0.90901405
