149
Properties=species:S:1:pos:R:3 pbc="F F F"
C        0.00000000       0.00000000       0.00000000
C        0.91831733       0.91831733      -0.91831733
C        1.39886707       0.17004824      -2.16978410
H        1.85266773      -0.77556197      -1.84181283
C        0.25922467      -0.15819386      -3.12879335
C       -0.51888221       0.85090541      -3.72723565
C       -1.57004599       0.52940223      -4.59125492
C       -1.85702518      -0.80399576      -4.87198747
C       -1.08865896      -1.80416388      -4.29075998
C       -0.03921587      -1.49691806      -3.42947030
F       -1.36285973      -3.08710147      -4.56160161
C        2.42495887       0.93841171      -2.83452090
C        3.27068041       1.57171211      -3.38240461
C        4.41514257       2.34129551      -4.04884016
C        5.34734182       2.91955755      -4.54181311
C        6.51118905       3.62484702      -5.12370732
H        6.11942831       4.52204836      -5.62299971
C        7.20395171       2.75714270      -6.16705727
C        7.76677780       1.50968362      -5.83848790
C        8.41202005       0.73582589      -6.80822806
C        8.50248901       1.19622675      -8.11944489
C        7.94525392       2.42419551      -8.45094937
C        7.30015667       3.20331965      -7.49480641
F        8.03121201       2.86818221      -9.71185297
C        7.45659930       4.07344845      -4.00247650
Br       8.77077529       5.36558210      -4.65168207
H        1.75834929       1.20872675      -0.27787703
H        0.33393571       1.81562085      -1.14558059
H       -0.31040459       1.90082124      -3.52902630
H       -2.16293528       1.32000975      -5.04444343
H       -2.67079732      -1.06969085      -5.53875650
H        0.53080940      -2.31367734      -2.99573473
H        7.70420607       1.12504293      -4.82198471
H        8.84246069      -0.22569475      -6.53941430
H        9.00088428       0.60799589      -8.88303174
H        6.88403798       4.15913005      -7.80057977
H        6.91646922       4.59546314      -3.20536602
H        8.02296045       3.25108030      -3.55440620
C       -0.91831733      -0.91831733      -0.91831733
C       -2.21087284      -1.32898973      -0.19883683
H       -1.93170684      -1.75997149       0.77275974
C       -3.13958911      -0.14630938       0.05607432
C       -3.67524310       0.61558685      -0.99960261
C       -4.51198718       1.70640874      -0.74503272
C       -4.82781709       2.04985710       0.56699346
C       -4.30870670       1.29796218       1.61280737
C       -3.47511554       0.20945711       1.37232206
F       -4.61338451       1.62652252       2.87522159
C       -2.88486163      -2.35831290      -0.95471696
C       -3.44037088      -3.20669799      -1.57772826
C       -4.12020622      -4.35423310      -2.33083893
C       -4.62581574      -5.28891995      -2.89397679
C       -5.22409742      -6.45643110      -3.57921487
H       -5.67822920      -6.07984095      -4.50640622
C       -6.32038753      -7.08194706      -2.72581710
C       -6.05480751      -7.61115385      -1.44898796
C       -7.07268496      -8.19504752      -0.68834153
C       -8.36977067      -8.25686859      -1.19152140
C       -8.63914675      -7.73245548      -2.44879657
C       -7.63467505      -7.14842813      -3.21517956
F       -9.88638183      -7.79091053      -2.93395482
C       -4.12236229      -7.45492451      -3.95523746
Br      -4.77312791      -8.79106078      -5.22385077
H       -0.29846816      -1.78951633      -1.15696858
H       -1.09392547      -0.35864639      -1.84256529
H       -3.44875112       0.36340534      -2.03409717
H       -4.91659421       2.28608147      -1.57100516
H       -5.47404777       2.89485336       0.78092607
H       -3.09002258      -0.34578801       2.22294380
H       -5.05047511      -7.56980021      -1.03095839
H       -6.85232165      -8.60011111       0.29625251
H       -9.17019669      -8.70771658      -0.61399864
H       -7.89265558      -6.75620296      -4.19488926
H       -3.28923990      -6.96119399      -4.46686450
H       -3.72301405      -8.00680155      -3.09863135
C       -0.91831733       0.91831733       0.91831733
C       -1.13774146       0.29629728       2.30466067
H       -1.49379320      -0.73298897       2.15811437
C        0.14312702       0.24205782       3.13089336
C        0.84187932       1.40984199       3.49129620
C        2.02340369       1.33856869       4.23544617
C        2.52207065       0.10051409       4.63252309
C        1.83374233      -1.05495789       4.28663735
C        0.65619198      -0.99712191       3.54665026
F        2.31174017      -2.24629048       4.66967106
C       -2.17197667       1.01946027       3.00645454
C       -3.02441090       1.61550522       3.58488101
C       -4.17499493       2.32586308       4.30442023
C       -5.11151909       2.84986582       4.84732756
C       -6.28252069       3.48309020       5.49413249
H       -5.96022847       4.48079541       5.82345250
C       -6.71926436       2.68959160       6.71929572
C       -7.14121950       1.35032139       6.62340843
C       -7.55295409       0.64472409       7.75839583
C       -7.54728983       1.26621807       9.00465274
C       -7.12780793       2.58605446       9.10653641
C       -6.71530219       3.29867585       7.98430470
F       -7.12151059       3.18505694      10.30467966
C       -7.40841936       3.65680190       4.46730301
Br      -8.79955625       4.85817561       5.13030759
H       -1.86109645       1.01505265       0.36880398
H       -0.43936666       1.90201150       0.95375899
H        0.46917290       2.38991809       3.19869775
H        2.55251530       2.24934028       4.50469291
H        3.43881003       0.02852845       5.20854991
H        0.15548478      -1.92819090       3.29654248
H       -7.14924797       0.84035048       5.66163526
H       -7.87674164      -0.38928905       7.66872765
H       -7.86487390       0.73254641       9.89449161
H       -6.40036849       4.33041690       8.11296241
H       -7.04475786       4.12579308       3.54674744
H       -7.90647936       2.71869430       4.20327329
C        0.91831733      -0.91831733       0.91831733
C        0.56780749      -2.40520976       0.76568215
H       -0.51477344      -2.51247042       0.92122161
C        0.90383378      -2.94618607      -0.62019569
C        2.22227035      -2.95071170      -1.11372319
C        2.50805183      -3.43599612      -2.39343678
C        1.48181663      -3.92614787      -3.19699797
C        0.18001247      -3.93136599      -2.71344132
C       -0.11718214      -3.45155688      -1.44103837
F       -0.80761456      -4.40430968      -3.48505471
C        1.23367802      -3.17199139       1.79222207
C        1.78250067      -3.80398173       2.63831472
C        2.41991624      -4.61405535       3.77130666
C        2.87769342      -5.24142434       4.68959470
C        3.42230010      -5.99873935       5.83870395
H        4.50643800      -6.07993364       5.67810474
C        2.83634265      -7.40432991       5.88747913
C        1.45431942      -7.62670473       6.03392518
C        0.93870021      -8.92529807       6.09207573
C        1.79576935     -10.01934953       6.00304177
C        3.15988374      -9.80656694       5.85394812
C        3.68503530      -8.51891152       5.79433592
F        3.98545674     -10.85794966       5.76784079
C        3.18633392      -5.21217326       7.13401708
Br       4.24432153      -5.93395283       8.60976510
H        0.73783248      -0.56697285       1.94014774
H        1.95492548      -0.68638054       0.65383113
H        3.04290040      -2.57908951      -0.50254697
H        3.53118078      -3.43139293      -2.76105581
H        1.68719592      -4.30420787      -4.19313546
H       -1.15109011      -3.47218952      -1.10823261
H        0.76303157      -6.78830659       6.09989555
H       -0.13121021      -9.08150937       6.20588108
H        1.41121828     -11.03306072       6.04763291
H        4.75929921      -8.40248372       5.68196487
H        3.51005263      -4.17034846       7.03689729
H        2.14322000      -5.22004108       7.46518587
