141
Properties=species:S:1:pos:R:3 pbc="F F F"
C        0.00000000       0.00000000       0.00000000
N        7.68094020       2.31875633      -5.56161494
O        7.41187976       1.07699634      -4.84911950
C        6.98314522       1.37148929      -3.51587085
C        5.75010118       0.52544142      -3.13854861
N        4.44887721       1.11153631      -3.52938328
C        3.32870369       0.44010435      -2.83986457
C        1.94487010       1.09637973      -3.10183872
N        0.81706283       0.52713580      -2.33008973
C       -0.47781841       0.99562713      -2.89298084
C       -0.80361693       0.48036710      -4.30652269
O       -2.17070207       0.80395418      -4.60275165
N       -2.44917676       0.40310494      -5.97718654
C        0.91893576       0.91893576      -0.91893576
C        4.27868192       1.26851821      -4.97445989
Br       4.18253405      -0.40619434      -5.96215446
H        7.24506252       2.12654937      -6.46214473
H        8.68532866       2.24742607      -5.72670674
H        6.77769071       2.44131459      -3.36645886
H        7.81345335       1.10733896      -2.84851067
H        5.76372195       0.45364816      -2.04343577
H        5.85835331      -0.49502614      -3.52534333
H        3.53875208       0.48894849      -1.76595294
H        3.28367338      -0.62490460      -3.09933018
H        1.73833373       0.94436761      -4.16373681
H        2.00788021       2.18025539      -2.93833904
H       -0.52506040       2.09364203      -2.89382416
H       -1.30609152       0.67216116      -2.25184765
H       -0.67594525      -0.60761105      -4.35413911
H       -0.16181186       0.95685393      -5.05522189
H       -3.19475019      -0.28169137      -5.83763845
H       -2.90558252       1.24154957      -6.34071058
H        0.64003587       1.96165175      -0.73496024
H        1.91325573       0.74523810      -0.50212868
H        5.08027012       1.85214506      -5.42492724
H        3.36611387       1.81890898      -5.21859863
N       -2.13642728      -6.15255157      -7.27233261
O       -0.85464401      -5.54799259      -6.93535901
C       -1.03350769      -4.14998585      -6.68701183
C       -0.28340277      -3.72119174      -5.40949670
N       -1.04512240      -3.89215697      -4.15251744
C       -0.41878647      -3.15000483      -3.03988130
C       -1.24332011      -3.17661022      -1.72315821
N       -0.70900616      -2.34160646      -0.62367574
C       -1.37419897      -2.69559201       0.65900142
C       -1.06620705      -4.10723603       1.19017022
O       -1.56450173      -4.20465198       2.53314994
N       -1.35989703      -5.57121377       2.99999608
C       -0.91893576      -0.91893576      -0.91893576
C       -1.38827116      -5.28252114      -3.85086772
Br       0.13894908      -6.42274004      -3.45470321
H       -2.09858615      -7.01065846      -6.72451202
H       -1.97973574      -6.44139179      -8.23833394
H       -2.09392365      -3.86565682      -6.62588369
H       -0.60667699      -3.61661208      -7.54601392
H       -0.08207614      -2.64898809      -5.52974165
H        0.69008231      -4.22327849      -5.35547432
H       -0.31840760      -2.10917868      -3.36606724
H        0.59754799      -3.51299247      -2.84265448
H       -1.24004149      -4.21684502      -1.38955164
H       -2.28769670      -2.90851607      -1.93026187
H       -2.46349963      -2.57530212       0.57639594
H       -1.06643976      -1.99898222       1.44750469
H        0.01593904      -4.28379535       1.19727351
H       -1.55736127      -4.87199166       0.57908897
H       -0.74572576      -5.41766078       3.80218966
H       -2.27867042      -5.78817062       3.39016340
H       -1.95624085      -0.59467853      -0.78572847
H       -0.59367558      -0.64277012      -1.92417681
H       -1.93327343      -5.76033554      -4.66373346
H       -2.05655150      -5.35817236      -2.98889761
N       -2.26685337       5.69983743       7.59462067
O       -1.01413376       5.01245497       7.31140688
C       -1.28446175       3.66135914       6.92468449
C       -0.46055928       3.27359145       5.67994047
N       -1.08969331       3.61514377       4.38495972
C       -0.42923659       2.91388842       3.26554759
C       -1.12723806       3.12271299       1.89313749
N       -0.56694292       2.33647533       0.77087011
C       -1.08289487       2.85313559      -0.52524089
C       -0.61330003       4.27034858      -0.90037575
O       -0.97930512       4.52233147      -2.26563282
N       -0.62181335       5.89878368      -2.58948231
C       -0.91893576       0.91893576       0.91893576
C       -1.28874678       5.05079340       4.18211984
Br       0.35653400       6.07803758       4.01699058
H       -2.10947271       6.59325715       7.13102677
H       -2.17426809       5.89293514       8.59225824
H       -2.35490190       3.47937336       6.75118891
H       -0.98183174       3.02292305       7.76454819
H       -0.35979480       2.18139888       5.71961220
H        0.55186115       3.68899712       5.75153454
H       -0.44457248       1.84494783       3.50413321
H        0.62711842       3.19917331       3.18604406
H       -1.00839902       4.18237216       1.65566696
H       -2.20450099       2.93331928       1.98865437
H       -2.18140321       2.82472772      -0.54372513
H       -0.76399108       2.19899812      -1.34507191
H        0.47596151       4.34903349      -0.80248917
H       -1.09269602       5.02319411      -0.26562617
H        0.04715693       5.75727990      -3.34892608
H       -1.48085948       6.22872403      -3.03290587
H       -1.96325363       0.70117828       0.67221595
H       -0.70907339       0.53287165       1.91867748
H       -1.86332644       5.50705632       4.98695966
H       -1.86844401       5.25683437       3.27834309
N        6.87611042      -6.61281867       2.07238237
O        6.40601328      -6.16290116       0.76908117
C        4.97515783      -6.13854200       0.75680554
C        4.45592113      -4.82890218       0.12926789
N        4.32075848      -3.69672164       1.07231669
C        3.50427798      -2.61054360       0.49385103
C        3.20993831      -1.44950867       1.48364156
N        2.29220506      -0.40337795       0.97870535
C        2.34511044       0.79410109       1.85978022
C        3.68364732       1.55437987       1.85400542
O        3.49880657       2.80230317       2.53950037
N        4.78935163       3.47719531       2.61895840
C        0.91893576      -0.91893576       0.91893576
C        5.58615531      -3.26674362       1.66876109
Br       6.84649996      -2.48269708       0.40929712
H        7.63389001      -5.95428963       2.24557698
H        7.33262936      -7.49349344       1.83333867
H        4.54311155      -6.28508589       1.75726672
H        4.64739639      -6.98375887       0.13814772
H        3.45370914      -5.06058814      -0.25349140
H        5.07090166      -4.55384917      -0.73608031
H        2.55157149      -3.05532859       0.18675343
H        3.96641211      -2.20759192      -0.41590508
H        4.17499974      -0.98116023       1.69027817
H        2.83835551      -1.85363920       2.43447993
H        2.09228602       0.52474258       2.89486236
H        1.58105652       1.51911221       1.55597298
H        4.00246541       1.75642349       0.82454089
H        4.46134304       0.98317009       2.37209101
H        4.59594329       4.33793690       2.10319049
H        4.81482454       3.74306231       3.60491540
H        0.43959015      -0.99676627       1.90029144
H        0.85202025      -1.88822886       0.42037341
H        6.10779238      -4.08286057       2.16668948
H        5.43293543      -2.51908303       2.45160302
