178
Properties=species:S:1:pos:R:3 pbc="F F F"
N        0.12318043      -3.90488791      -7.25058310
O        1.56467612      -3.68558186      -7.27930446
C        1.84082600      -2.60930839      -8.18809121
C        3.35121673      -2.32669494      -8.15211598
N        3.82617056      -1.28694679      -9.09241903
C        3.17802141       0.02047112      -8.89090928
C        3.37356429       0.57967372      -7.54608854
C        3.53629794       0.99614175      -6.43374444
C        3.74850528       1.48719545      -5.00123885
C        3.90656118       1.86524449      -3.88384094
C        4.09833162       2.32391166      -2.52811806
N        3.25024398       1.64541860      -1.53305527
C        3.62760237       2.08924141      -0.16804590
C        3.35943613       3.55736080       0.21285232
O        3.79735745       3.77374525       1.56118397
N        3.57846978       5.17879621       1.88746202
C        1.82844250       1.82844250      -1.82844250
C        5.28206590      -1.14585102      -9.04278945
Br       6.15415634      -2.60946445      -9.99712963
H       -0.07013486      -3.81974194      -6.25098480
H        0.07225517      -4.90376927      -7.45862907
H        1.26971076      -1.72952012      -7.87247077
H        1.53336557      -2.90195056      -9.19900704
H        3.84840944      -3.27927025      -8.37437083
H        3.64356097      -2.09359795      -7.11949122
H        2.10743855      -0.06007688      -9.10762712
H        3.55399254       0.72971939      -9.63870626
H        3.92768654       3.40709501      -2.50460701
H        5.15248289       2.16722396      -2.26598466
H        4.69716026       1.88520647      -0.01680869
H        3.15123717       1.44297768       0.57928860
H        2.29028856       3.78675864       0.15276690
H        3.91248255       4.23438003      -0.44744375
H        4.49743905       5.44652281       2.24508229
H        2.97491163       5.10165256       2.70865500
H        1.57158126       1.48419638      -2.83456309
H        1.47847444       2.85852801      -1.71756967
H        5.69147189      -1.12308729      -8.02773341
H        5.62399074      -0.25716971      -9.58395863
N       -6.52372715       4.73750391      -1.68265238
O       -7.36594064       3.58633981      -1.37879790
C       -7.82668695       3.02329822      -2.61622010
C       -8.64469118       1.76244836      -2.29439495
N       -9.26329802       1.09120432      -3.45954910
C       -8.28475078       0.67388554      -4.47853656
C       -7.26494266      -0.25762015      -3.97676375
C       -6.43730498      -1.00022036      -3.52865880
C       -5.38808900      -1.93033363      -2.91851695
C       -4.56668448      -2.64744413      -2.44151800
C       -3.57009305      -3.51749761      -1.86277069
N       -2.56135171      -2.82333573      -1.04403040
C       -1.67823534      -3.81916863      -0.38748571
C       -0.75472231      -4.66572089      -1.28350139
O        0.00361162      -5.55794976      -0.45558060
N        0.83682962      -6.38229925      -1.32433434
C       -1.82844250      -1.82844250      -1.82844250
C      -10.08466603      -0.04762220      -3.04671610
Br     -11.78901948       0.55684843      -2.30965046
H       -5.66506279       4.49091763      -1.18696285
H       -6.97092636       5.46243441      -1.11862302
H       -6.95650134       2.77876626      -3.23492634
H       -8.45140452       3.75833184      -3.13734937
H       -9.42675817       2.07375693      -1.59050878
H       -8.01489035       1.06791515      -1.72247904
H       -7.80117596       1.55662119      -4.91043402
H       -8.81459942       0.21429784      -5.32211660
H       -3.08864543      -4.07611304      -2.67463008
H       -4.08978550      -4.25639412      -1.23951189
H       -2.30199721      -4.50289782       0.20571961
H       -1.06555425      -3.32715086       0.37777886
H       -0.05802284      -4.02821902      -1.83803845
H       -1.34292935      -5.26016188      -1.99121509
H        0.60949428      -7.32009453      -0.98827932
H        1.76947728      -6.17748388      -0.95990258
H       -2.49824463      -1.09894243      -2.29315367
H       -1.19121949      -2.25559205      -2.60776058
H       -9.60967188      -0.68902869      -2.29741744
H      -10.38707530      -0.66280320      -3.90090116
N        2.75584923       7.63264857      -1.40792372
O        2.72408898       7.84845075       0.03403696
C        1.56886467       8.64057875       0.34789474
C        1.49372014       8.79506978       1.87528812
N        0.39542532       9.65265154       2.37441659
C       -0.94005486       9.18790161       1.96144533
C       -1.26101665       7.82643699       2.41187292
C       -1.48121561       6.70646688       2.77850164
C       -1.72006748       5.27042539       3.24644671
C       -1.90246256       4.14979752       3.60338653
C       -2.12374543       2.79015815       4.03645776
N       -1.41983578       1.77596203       3.23292004
C       -1.60103850       0.43698376       3.84686742
C       -3.01769706      -0.16750139       3.85374892
O       -2.97061177      -1.45146958       4.49077655
N       -4.32723884      -1.98682841       4.52939355
C       -1.82844250       1.82844250       1.82844250
C        0.45394179       9.80399400       3.82895213
Br       1.85873637      11.06049123       4.34006666
H        2.79716077       6.61287841      -1.45460964
H        3.69702770       7.95883678      -1.63469410
H        0.67963588       8.13116141      -0.03886412
H        1.66408906       9.62332952      -0.12881841
H        2.45867438       9.21136080       2.19082361
H        1.45814542       7.79651996       2.33107969
H       -1.03285603       9.25023102       0.87190173
H       -1.69843194       9.88495090       2.33903535
H       -3.20404088       2.60063937       4.03470831
H       -1.79375628       2.71170895       5.08022628
H       -1.23927126       0.47569245       4.88421170
H       -0.91751961      -0.28286014       3.38026678
H       -3.39059932      -0.29878510       2.83246608
H       -3.70833293       0.47453569       4.41143770
H       -4.41648011      -2.23433853       5.51673799
H       -4.20698072      -2.87215837       4.03308684
H       -1.67534084       2.82079353       1.39420635
H       -2.86691916       1.53331427       1.65433870
H        0.63710531       8.86757568       4.36564765
H       -0.45373826      10.27008388       4.22695752
N       -2.69032651      -7.64186674      -1.48266460
O       -2.66737010      -7.86786901      -0.04210018
C       -1.50872696      -8.65392453       0.27441126
C       -1.44344649      -8.81892552       1.80115874
N       -0.34258770      -9.67218191       2.30204860
C        0.99242662      -9.19486711       1.90210807
C        1.30027728      -7.83442737       2.36462191
C        1.50972108      -6.71558713       2.74087592
C        1.73480026      -5.28129141       3.22084791
C        1.90650703      -4.16199503       3.58714455
C        2.11482192      -2.80397126       4.03156816
N        1.40938195      -1.78906999       3.23026591
C        1.57646826      -0.45330385       3.85511757
C        2.98862724       0.16128272       3.87660007
O        2.92766979       1.44023365       4.52248260
N        4.28007276       1.98503624       4.57476746
C        1.82844250      -1.82844250       1.82844250
C       -0.41046037      -9.83446775       3.75499696
Br      -1.80975878     -11.10469742       4.24688287
H       -2.73868333      -6.62210859      -1.52231725
H       -3.62746446      -7.97316121      -1.71858178
H       -0.62045261      -8.13534199      -0.10222796
H       -1.59340488      -9.63385726      -0.21003034
H       -2.40760464      -9.24441523       2.10669943
H       -1.41837914      -7.82347183       2.26436155
H        1.09350567      -9.24863809       0.81284503
H        1.75309673      -9.88916274       2.28015872
H        3.19370163      -2.60668469       4.03900223
H        1.77677955      -2.73545479       5.07345716
H        1.20754385      -0.50212108       4.88951048
H        0.89112721       0.26496770       3.38876673
H        3.36790042       0.30263391       2.85901379
H        3.67986686      -0.47979437       4.43464509
H        4.36042059       2.22602669       5.56448567
H        4.15697860       2.87304893       4.08397952
H        1.68565452      -2.81869855       1.38598767
H        2.86597985      -1.52460475       1.66398753
H       -0.60425159      -8.90330032       4.29706928
H        0.49768607     -10.29689064       4.15620295
C       -0.00445707       0.01189536      -1.78238275
H       -0.66409135       0.67374010      -2.43557963
H        0.65740317      -0.63156657      -2.45157240
C       -0.90989263      -0.90692880      -0.91072765
C        0.90977584       0.90977584      -0.90977584
C       -0.00465871       1.77757030       0.00794375
H       -0.66225468       2.44313916      -0.64384735
H        0.64322798       2.43503045       0.67728295
C       -1.78241447       0.00034974      -0.00472694
H       -2.45427497      -0.65498947       0.64260836
H       -2.43311707       0.67328779      -0.65473579
C       -0.91132561       0.90220522       0.91563759
C       -0.01476271      -0.02253852       1.78660255
H       -0.67934791      -0.69751639       2.42135241
H        0.63392994       0.61504881       2.47327442
C        0.01484550      -1.77751727      -0.01636693
H        0.67870853      -2.42144646      -0.68295456
H       -0.62264859      -2.45592969       0.64226336
C        1.78714474       0.01002794       0.00389507
H        2.44202412       0.67113390       0.66197326
H        2.45385902      -0.65136977      -0.64189061
C        0.91606151      -0.90478549       0.90901405
