81
Properties=species:S:1:pos:R:3 pbc="F F F"
C        0.00000000       0.00000000       0.00000000
C        0.86802381       0.86802381      -0.86802381
N        1.99253073       0.42152294      -1.49538735
H        2.36705460      -0.51354963      -1.43159827
C        2.56659620       1.45961356      -2.16544667
C        1.79903596       2.59004261      -1.97580807
O        2.21420668       3.77150332      -2.48322337
C        1.28214263       4.83628246      -2.45524971
C        0.72224786       5.10774816      -1.07064382
C       -0.50952801       4.24688976      -0.86286453
O       -0.27965067       2.89552576      -0.51215066
C        0.71394643       2.21414471      -1.12845423
H        1.83679920       5.72452839      -2.77973224
H        0.50027699       4.67387888      -3.20862970
H        0.42606630       6.15970099      -1.00919714
H        1.47276835       4.91083742      -0.29656395
H       -1.18916829       4.29046681      -1.72336434
H       -1.06968358       4.67072911      -0.02006976
C        3.80031031       1.35118838      -2.90015306
C        4.83354587       1.26038229      -3.51546967
Br       6.50420039       1.11355652      -4.51038457
C       -0.86802381      -0.86802381      -0.86802381
N       -1.86474027      -0.38345024      -1.66125052
H       -2.13517168       0.58607361      -1.73600516
C       -2.48173078      -1.42701116      -2.28291449
C       -1.87087061      -2.60085951      -1.89315653
O       -2.36367969      -3.78382582      -2.32142786
C       -1.56631592      -4.92791329      -2.07944560
C       -1.18486293      -5.09597452      -0.61980239
C        0.10910119      -4.34707948      -0.36224800
O       -0.00032440      -2.94828454      -0.17941680
C       -0.84211262      -2.24366065      -0.97077209
H       -2.18231015      -5.78611034      -2.37263934
H       -0.69840953      -4.93263104      -2.75174499
H       -1.01789003      -6.15880493      -0.41826948
H       -1.98308882      -4.73699133       0.03991042
H        0.86349626      -4.55711903      -1.13104008
H        0.52870098      -4.72729610       0.57747984
C       -3.61383933      -1.27762198      -3.16019044
C       -4.56198025      -1.15250853      -3.89490905
Br      -6.09504392      -0.95021068      -5.08288690
C       -0.86802381       0.86802381       0.86802381
N       -0.49069221       2.09624846       1.32250035
H        0.39929876       2.53837116       1.14603084
C       -1.48158505       2.59954195       2.11052944
C       -2.51650100       1.68876201       2.15962364
O       -3.58512743       1.93474033       2.94906561
C       -4.70528042       1.08570808       2.78268631
C       -4.36748688      -0.38775689       2.92090985
C       -3.96757640      -0.92835197       1.56100185
O       -2.64360698      -0.65739708       1.14181584
C       -2.11638680       0.56736069       1.37279787
H       -5.40209382       1.35331598       3.58565004
H       -5.22061720       1.32009852       1.84206984
H       -5.25907014      -0.92440892       3.26030321
H       -3.56751640      -0.54151060       3.65416392
H       -4.66961761      -0.62064040       0.77568565
H       -4.03537578      -2.02238128       1.60812079
C       -1.39314362       3.86322122       2.79528692
C       -1.31907391       4.92155261       3.36877130
Br      -1.19930947       6.63278496       4.29604706
C        0.86802381      -0.86802381       0.86802381
N        0.46907905      -2.07086833       1.36949364
H       -0.43814947      -2.49125879       1.23199392
C        1.46801402      -2.58043400       2.14320841
C        2.52978175      -1.69977024       2.13533466
O        3.61385057      -1.95451055       2.90057225
C        4.75259789      -1.14429182       2.67678509
C        4.46171910       0.34193435       2.78085508
C        4.03734303       0.85470738       1.41759063
O        2.69423561       0.61122925       1.04501938
C        2.13899007      -0.59014669       1.32740860
H        5.46495040      -1.40920501       3.46690442
H        5.23277972      -1.42093577       1.72907007
H        5.37810733       0.86142696       3.07828407
H        3.68865950       0.54048472       3.53199495
H        4.70656789       0.50373881       0.62183379
H        4.13805319       1.94714292       1.43020502
C        1.36353096      -3.82064184       2.86747895
C        1.27602640      -4.85931590       3.47405553
Br       1.13453892      -6.53876401       4.45483856
