141
Properties=species:S:1:pos:R:3 pbc="F F F"
C        0.00000000       0.00000000       0.00000000
C        0.86477593       0.86477593      -0.86477593
N        0.62286535       2.18758014      -1.12529405
H       -0.17784565       2.69890000      -0.78363743
C        1.60294757       2.69560206      -1.94981363
C        2.47607576       1.65653250      -2.21101570
C        1.98777405       0.49481448      -1.55967730
O        2.49867094      -0.75774613      -1.56872625
C        3.10742233      -1.06956897      -2.82390947
C        4.51363175      -0.49522128      -2.96283400
C        4.65349350       0.94977042      -2.49557473
O        3.59753437       1.79099578      -2.95984810
C        1.62994782       4.05794454      -2.38073526
N        1.48526262       5.11799058      -1.51087234
H        1.35391365       5.04255848      -0.51286624
C        1.63125498       6.30118948      -2.18350356
C        1.84628826       6.01730763      -3.50774809
C        1.87677071       4.60405085      -3.62555554
O        2.10237661       3.86716741      -4.73871054
C        3.13355854       4.44458527      -5.53948142
C        2.62619715       5.57845841      -6.42506637
C        1.61108512       6.49990234      -5.75444958
O        2.02787324       6.95549136      -4.46639419
Br       1.53411811       7.98435504      -1.39263658
H        3.16644417      -2.16201072      -2.88997704
H        2.46393677      -0.75521470      -3.65714316
H        4.80944623      -0.57281450      -4.01585218
H        5.22100032      -1.10635566      -2.38972032
H        5.58829506       1.35938708      -2.89506192
H        4.74607452       1.00925795      -1.40178054
H        3.97482915       4.77420552      -4.91402798
H        3.53272858       3.64823740      -6.17761078
H        2.15895833       5.15877052      -7.32359627
H        3.49255507       6.16064688      -6.76229322
H        0.61897653       6.03023377      -5.69841639
H        1.48305086       7.39080381      -6.38071299
C       -0.86477593      -0.86477593      -0.86477593
N       -0.87380423      -0.82793955      -2.23399577
H       -0.32021088      -0.19345644      -2.79102446
C       -1.77430783      -1.74675724      -2.72729820
C       -2.34279080      -2.36895409      -1.63187906
C       -1.79819486      -1.78432255      -0.45974843
O       -2.08886955      -2.05432773       0.83354622
C       -3.46557715      -2.39950752       1.00332183
C       -3.76627048      -3.84843309       0.63345909
C       -3.11804086      -4.31503677      -0.66576102
O       -3.25182184      -3.36950635      -1.72705007
C       -1.99130321      -1.95254074      -4.12478367
N       -0.95901487      -2.13445901      -5.02065166
H        0.02315419      -2.14464738      -4.78784518
C       -1.45950771      -2.38701855      -6.26942176
C       -2.82831798      -2.34407443      -6.19895157
C       -3.16271157      -2.10175694      -4.84190859
O       -4.39698377      -2.01967478      -4.29159600
C       -5.27306328      -3.00423705      -4.84032490
C       -5.87055919      -2.58060160      -6.17856114
C       -4.89647074      -1.86137319      -7.10759311
O       -3.65037063      -2.54378691      -7.25560124
Br      -0.41801012      -2.71518868      -7.77791093
H       -3.70614113      -2.25045348       2.06218413
H       -4.11205206      -1.70417951       0.45036633
H       -4.85469123      -3.96223832       0.56444564
H       -3.42912665      -4.51303303       1.43779471
H       -3.61222860      -5.23663718      -0.99387828
H       -2.06255996      -4.58165907      -0.51289399
H       -4.76639456      -3.97604840      -4.92061969
H       -6.08586470      -3.15222651      -4.12048554
H       -6.72354820      -1.91470396      -6.00307297
H       -6.26574745      -3.47614937      -6.67359836
H       -4.73490714      -0.82117088      -6.79154868
H       -5.34697908      -1.80208221      -8.10550637
C       -0.86477593       0.86477593       0.86477593
N       -2.23437285       0.85274215       0.84862455
H       -2.79235982       0.28129093       0.23104103
C       -2.72749377       1.75962078       1.76124872
C       -1.63164916       2.35383233       2.35814246
C       -0.46026079       1.81802338       1.76398166
O        0.83236385       2.13209928       2.00991562
C        0.98634328       3.51628205       2.33182406
C        0.63368776       3.83339261       3.78153962
C       -0.64839766       3.17295072       4.27749027
O       -1.72563516       3.27643968       3.34630342
C       -4.12487840       1.95877131       1.98497792
N       -5.00212824       0.91607000       2.19592729
H       -4.75429349      -0.06223502       2.21727990
C       -6.25444010       1.40159103       2.45991689
C       -6.20543449       2.77049208       2.39541742
C       -4.85741111       3.12144419       2.12752180
O       -4.32721334       4.36242716       2.01861405
C       -4.87439254       5.24505672       2.99817597
C       -6.22774867       5.81594124       2.58603202
C       -7.15253165       4.81723285       1.89567254
O       -7.27134851       3.57957290       2.59883738
Br      -7.74184200       0.34273333       2.82653440
H        2.03907639       3.77037910       2.16310777
H        0.41327686       4.14376209       1.63538001
H        0.54985020       4.92226214       3.88007197
H        1.45291525       3.51846988       4.43881035
H       -0.97015344       3.67612145       5.19646917
H       -0.47553048       2.12405140       4.55753114
H       -4.93241774       4.75207243       3.97857249
H       -4.16485569       6.07070005       3.12302102
H       -6.07523556       6.66124204       1.90484753
H       -6.71527172       6.21723988       3.48298358
H       -6.84967746       4.64462707       0.85332217
H       -8.15795308       5.25179656       1.84481803
C        0.86477593      -0.86477593       0.86477593
N        1.42227970      -0.46359214       2.04986771
H        1.32834187       0.46308421       2.43943412
C        2.15733930      -1.49092511       2.60009886
C        2.05553088      -2.55911472       1.72897836
C        1.27453568      -2.15004848       0.61768167
O        0.94664842      -2.85338704      -0.49038441
C        1.99450050      -3.74511199      -0.87784965
C        2.01015326      -5.03504663      -0.06395541
C        1.82612769      -4.83587970       1.43683127
O        2.61895775      -3.76984861       1.95957190
C        2.84257154      -1.37700617       3.84904991
N        2.23985674      -0.88626962       4.98799918
H        1.28308109      -0.57149671       5.05476057
C        3.10265117      -0.96557986       6.04771698
C        4.28826508      -1.48644245       5.59663646
C        4.11298075      -1.77456992       4.21882643
O        5.00203790      -2.33856419       3.36765246
C        5.71961538      -3.39891594       3.99909392
C        6.88673824      -2.89847443       4.84450925
C        6.59328193      -1.63051914       5.64163597
O        5.37202860      -1.69832528       6.37940491
Br       2.69348496      -0.43298997       7.78463479
H        1.82897750      -3.99704280      -1.93160981
H        2.96906815      -3.23902907      -0.84223199
H        2.96194051      -5.54509428      -0.25455088
H        1.21645089      -5.70441942      -0.41650533
H        2.13862495      -5.75046891       1.95365020
H        0.76674616      -4.69560332       1.69476353
H        5.04212834      -4.03058885       4.59034546
H        6.10927622      -4.04491638       3.20438416
H        7.74755121      -2.69773159       4.19604232
H        7.18518485      -3.70578041       5.52452991
H        6.60981643      -0.73959843       4.99821183
H        7.39815816      -1.48458144       6.37182807
