165
Properties=species:S:1:pos:R:3 pbc="F F F"
C        0.00000000       0.00000000       0.00000000
C        0.86757977       0.86757977      -0.86757977
N        0.70192220       2.21455541      -0.99644330
H       -0.00260257       2.76097535      -0.52246550
C        1.66974038       2.71239178      -1.82415708
C        2.46695821       1.65792499      -2.23739079
C        1.95116120       0.47892869      -1.62507012
O        2.35183757      -0.81057716      -1.61154495
C        3.41930050      -1.14767017      -2.47738783
C        4.62242575      -0.23341645      -2.33512277
C        4.48473196       0.92376783      -3.30753992
O        3.52377396       1.92621019      -3.03463674
C        1.81535319       4.09515927      -2.12507590
C        1.98602522       5.25715457      -2.37231192
C        2.25535555       6.73141978      -2.68593927
C        2.50994072       7.87829305      -2.93222292
C        2.85467085       9.22825995      -3.21939939
N        2.06057654      10.29657915      -2.90484498
H        1.16752336      10.24657406      -2.43553333
C        2.69719290      11.45027485      -3.25430693
C        3.92381248      11.13947859      -3.80238941
C        4.01829334       9.71531455      -3.79000104
O        5.00984592       8.84923381      -4.09758317
C        6.05885214       9.33812546      -4.91164033
C        6.71651993      10.59337444      -4.36883592
C        5.94272921      11.80278888      -4.86170536
O        4.78902885      12.13140026      -4.10979082
H        3.72459490      -2.16057230      -2.19012711
H        3.05536224      -1.21883875      -3.50994853
H        5.52831177      -0.79194153      -2.59541133
H        4.72784220       0.13031663      -1.30650894
H        4.31494252       0.55493073      -4.32658385
H        5.44871081       1.44569994      -3.34021479
H        6.81203034       8.54174429      -4.93213590
H        5.71138372       9.45251379      -5.94622324
H        7.73976119      10.65102282      -4.75467759
H        6.75610825      10.57407403      -3.27343492
H        5.68193611      11.72504744      -5.92450429
H        6.60128090      12.67538082      -4.77837283
C        2.16050301      12.76556834      -3.01858038
C        1.71102522      13.86712663      -2.82115939
Br       0.98425766      15.64825322      -2.50194636
C       -0.86757977      -0.86757977      -0.86757977
N       -0.76993985      -0.91655643      -2.22642463
H       -0.10897321      -0.39141953      -2.78044554
C       -1.66925733      -1.82472443      -2.71230749
C       -2.36035699      -2.36259415      -1.63932287
C       -1.84652054      -1.74797079      -0.46066868
O       -2.08823608      -1.92114544       0.85657616
C       -3.16258284      -2.77890324       1.19246793
C       -3.09615235      -4.12773396       0.49975425
C       -3.85299031      -4.04952177      -0.81352763
O       -3.27835813      -3.32287813      -1.88338463
C       -1.78708584      -2.15827596      -4.09022656
C       -1.88882293      -2.48647620      -5.24019257
C       -2.02683142      -2.95434132      -6.69154185
C       -2.14410316      -3.36189988      -7.81445365
C       -2.28715509      -3.88594780      -9.12922730
N       -1.69076613      -3.33918805     -10.23204649
H       -1.08865516      -2.52816418     -10.23281140
C       -1.97260116      -4.10534140     -11.32383212
C       -2.76048079      -5.16872484     -10.93647485
C       -2.97072424      -5.02037307      -9.53251162
O       -3.56461491      -5.79500992      -8.59703807
C       -4.46572572      -6.78277054      -9.06012167
C       -3.86671695      -7.71593528     -10.09607804
C       -4.04036702      -7.09603360     -11.47082282
O       -3.06362947      -6.13627589     -11.83031457
H       -3.08119891      -2.94579702       2.27284620
H       -4.11745285      -2.26252095       1.03350179
H       -3.58483303      -4.87803104       1.13108251
H       -2.05878759      -4.44131899       0.33543881
H       -4.87081686      -3.67370832      -0.65193193
H       -3.97321811      -5.07318396      -1.18822347
H       -4.72914540      -7.37848847      -8.17827665
H       -5.39849576      -6.31371079      -9.39791420
H       -4.40850441      -8.66724542     -10.06971176
H       -2.80852713      -7.90987695      -9.88521313
H       -5.04320716      -6.67469274     -11.61358795
H       -3.94478558      -7.89843197     -12.21181700
C       -1.46106345      -3.84007355     -12.64351472
C       -1.03265063      -3.61791173     -13.74874889
Br      -0.33994331      -3.25869486     -15.53581907
C       -0.86757977       0.86757977       0.86757977
N       -2.17911145       0.60396429       1.12984517
H       -2.69192101      -0.19345086       0.78236813
C       -2.67191933       1.55788503       1.97648488
C       -1.65310137       2.45362695       2.25554568
C       -0.50040827       2.01052519       1.54422656
O        0.77758776       2.44301172       1.48738141
C        1.05804947       3.66698889       2.14007874
C        0.56256677       3.71273958       3.57395926
C       -0.84749338       4.27392916       3.59461717
O       -1.90486114       3.46477073       3.11498902
C       -3.99744924       1.54530801       2.49283112
C       -5.09777501       1.54554142       2.97217527
C       -6.48098496       1.56321863       3.62851101
C       -7.54686081       1.59394793       4.17964795
C       -8.78966639       1.64251194       4.87015187
N       -9.85293826       0.83446813       4.57459429
H       -9.86886940       0.12364560       3.85711575
C      -10.86649595       1.08377936       5.45149937
C      -10.46655554       2.06402763       6.33509731
C       -9.14030559       2.42911765       5.95418569
O       -8.21137150       3.24695987       6.49833153
C       -8.67183193       4.21738959       7.41939640
C       -9.47840124       3.63502307       8.56530597
C      -10.93199866       3.53609082       8.13913397
O      -11.26323291       2.38963938       7.37734764
H        2.15093993       3.75121626       2.15387339
H        0.69391821       4.50610653       1.53428370
H        1.20576561       4.38460932       4.15293785
H        0.59582643       2.72097104       4.03952317
H       -0.88854111       5.23695511       3.07096088
H       -1.10077622       4.49543108       4.63841824
H       -7.76949850       4.67774320       7.83866882
H       -9.20192143       5.01881141       6.88938792
H       -9.41033365       4.31081799       9.42430996
H       -9.08961167       2.65343913       8.86056641
H      -11.27511358       4.43843555       7.61793872
H      -11.54092641       3.46594303       9.04816511
C      -12.11870970       0.37275343       5.45318860
C      -13.16743871      -0.22273079       5.45460332
Br     -14.86314483      -1.18557840       5.45689081
C        0.86757977      -0.86757977       0.86757977
N        2.19150464      -1.09040370       0.63101257
H        2.71963139      -0.69417952      -0.13297263
C        2.69937567      -1.88910477       1.61780880
C        1.67451246      -2.18740463       2.50035691
C        0.50369505      -1.53376635       2.01769862
O       -0.75502316      -1.41556932       2.49225921
C       -1.07496019      -2.19389730       3.63008105
C       -0.08009750      -2.03849539       4.76573419
C        1.00663496      -3.08814731       4.62125744
O        1.96108224      -2.93606473       3.58747391
C        4.06834921      -2.26719116       1.70004799
C        5.22212201      -2.57643955       1.81693015
C        6.68927563      -2.96562361       2.01781536
C        7.83331244      -3.26801240       2.21913185
C        9.18293323      -3.61857571       2.50082125
N       10.21596014      -3.41927308       1.62676746
H       10.13776227      -3.00136115       0.71050732
C       11.38470267      -3.80230067       2.21477135
C       11.11975042      -4.25629727       3.48963279
C        9.70756665      -4.14887098       3.66717129
O        8.88884515      -4.34226402       4.72555373
C        9.39371422      -5.12199791       5.79290579
C       10.71770000      -4.62122373       6.33980654
C       11.84484167      -5.23400084       5.52838094
O       12.14417447      -4.57374123       4.31230422
H       -2.04791850      -1.82600652       3.97606170
H       -1.22977352      -3.23964926       3.33659628
H       -0.59499800      -2.20916308       5.71761648
H        0.34970977      -1.03034359       4.78461441
H        0.56826301      -4.09024951       4.53794458
H        1.58526877      -3.09651526       5.55284151
H        8.64642313      -5.04784636       6.59164104
H        9.42468137      -6.18045191       5.50498748
H       10.81662835      -4.94876127       7.38007197
H       10.76571329      -3.52635417       6.31154975
H       11.68817445      -6.30336787       5.33994554
H       12.76049146      -5.16688564       6.12765745
C       12.67529918      -3.68183632       1.58751622
C       13.75617376      -3.58094743       1.06219006
Br      15.50385653      -3.41781862       0.21278208
