178
Properties=species:S:1:pos:R:3 pbc="F F F"
C        6.32181172       5.99905608      -4.40931956
C        5.52212601       5.02814521      -3.49262841
C        4.30907636       4.32685927      -4.33240155
C        3.41790550       3.42285807      -3.43350338
C        2.35627419       3.96289101      -2.67929381
C        1.54979277       3.15744432      -1.86737453
C        1.79106346       1.79106346      -1.79106346
C        2.83595846       1.22576970      -2.51130812
C        3.64245460       2.03463229      -3.31970998
N        4.83153400       3.54739331      -5.48790717
C        3.42558345       5.40328114      -5.02521816
C        6.47415715       3.97111513      -2.86279467
C        7.62399310       3.51636877      -3.53859611
C        8.48325782       2.57050824      -2.96727515
C        8.20371127       2.05145028      -1.70881652
C        7.06965540       2.46351498      -1.02068187
C        6.21458436       3.41112164      -1.59376724
N        5.01724405       5.94241728      -2.43183012
H        7.21657154       6.38595486      -3.90425714
H        5.72428670       6.87077062      -4.70280094
H        6.65202838       5.52096899      -5.33769493
H        2.13742202       5.02854599      -2.70670616
H        0.73746115       3.60939863      -1.30392610
H        3.03738905       0.15924500      -2.45286729
H        4.45934851       1.55103527      -3.84917582
H        4.05661080       3.04839199      -5.92320148
H        5.49018376       2.84789073      -5.15526401
H        2.53251116       4.95718690      -5.48212932
H        3.96456190       5.92233160      -5.82698382
H        3.08408593       6.17582166      -4.32832919
H        7.87665615       3.88829354      -4.52907834
H        9.36613425       2.25073904      -3.51495848
H        6.83590335       2.05655225      -0.04024354
H        5.32989841       3.69062948      -1.02692991
H        5.81312854       6.28164958      -1.89180343
H        4.42743755       5.42445776      -1.78670149
C        9.08843766       1.08050385      -1.11879767
C        9.82939601       0.26733621      -0.62465688
Br      11.02746300      -1.04748707       0.17432698
C       -5.96891821      -4.41480985      -6.34645931
C       -4.99620076      -3.50081071      -5.54588816
C       -4.32722343      -4.33211922      -4.30899453
C       -3.42310330      -3.43342251      -3.41774114
C       -3.96759977      -2.65422493      -2.37663431
C       -3.16206690      -1.84229089      -1.57025383
C       -1.79106346      -1.79106346      -1.79106346
C       -1.22103606      -2.53643296      -2.81556726
C       -2.02992818      -3.34479755      -3.62207115
N       -3.55807961      -5.50771948      -4.80103539
C       -5.42806908      -4.99406364      -3.43195003
C       -3.91467120      -2.90261496      -6.49078079
C       -3.45282956      -3.60349076      -7.62263767
C       -2.48480962      -3.06059855      -8.47563303
C       -1.95034381      -1.80610594      -8.20752832
C       -2.36907397      -1.09381316      -7.09096511
C       -3.33880225      -1.63850844      -6.24216254
N       -5.90134054      -2.41807542      -5.07207550
H       -6.33382475      -3.91799085      -7.25496794
H       -6.85434941      -4.68521950      -5.75828934
H       -5.50048067      -5.35561062      -6.65460101
H       -5.03682995      -2.66159739      -2.17424683
H       -3.61764276      -1.25911645      -0.77402666
H       -0.15071710      -2.49777792      -3.00100633
H       -1.54210949      -3.89456201      -4.42288810
H       -3.07813180      -5.93842459      -4.01164789
H       -2.84324853      -5.19644483      -5.45364514
H       -5.00319460      -5.44369061      -2.52494217
H       -5.95127646      -5.79607466      -3.96652619
H       -6.19472061      -4.27993417      -3.11358200
H       -3.83638249      -4.59193661      -7.86570892
H       -2.16004003      -3.62707035      -9.34472139
H       -1.95035624      -0.11625251      -6.86609038
H       -3.62304591      -1.05348499      -5.37092691
H       -6.21957781      -1.88547993      -5.88152381
H       -5.38248927      -1.77184287      -4.48426466
C       -0.95655269      -1.24531292      -9.08587357
C       -0.12425262      -0.77564877      -9.82148773
Br       1.22150620      -0.01624156     -11.01091359
C       -4.39456351       6.16149063       6.17413322
C       -3.46196993       5.36563359       5.21529612
C       -4.33395262       4.30978513       4.32459943
C       -3.43385348       3.41900417       3.42140931
C       -2.83547741       2.24362288       3.91935872
C       -2.02370950       1.43650985       3.11439227
C       -1.79106346       1.79106346       1.79106346
C       -2.35478549       2.94876985       1.26948092
C       -3.16340455       3.75524166       2.07815066
N       -5.35484555       5.01213484       3.49985408
C       -5.20666300       3.40593735       5.24148240
C       -2.64742585       6.34189396       4.31874715
C       -3.16860359       7.58924436       3.92111003
C       -2.43140547       8.46935865       3.12027708
C       -1.15803581       8.11444119       2.69150106
C       -0.61898879       6.88535012       3.04951334
C       -1.35773081       6.00940930       3.85233312
N       -2.54669881       4.67794346       6.16684919
H       -3.85180398       6.96335888       6.69162067
H       -4.82551593       5.51992460       6.95241771
H       -5.23751891       6.62370601       5.64946738
H       -2.98786807       1.93351724       4.95128886
H       -1.58321350       0.53500449       3.53256789
H       -2.17312774       3.23861645       0.23775715
H       -3.56667962       4.66075193       1.63212805
H       -5.80657562       4.33220883       2.88941982
H       -4.89663346       5.69489438       2.90181066
H       -5.69569087       2.60630256       4.66983395
H       -6.00409149       3.97273135       5.73705447
H       -4.62328441       2.92895622       6.03599615
H       -4.16425829       7.90423058       4.22553915
H       -2.86301646       9.42731309       2.84150222
H        0.37188435       6.59325367       2.71132981
H       -0.90331429       5.05138955       4.09275397
H       -1.97347088       5.38265481       6.63045587
H       -1.90918220       4.07619080       5.65322380
C       -0.39753175       9.02019501       1.87001242
C        0.23939040       9.77876383       1.18201568
Br       1.26923965      11.00530546       0.06958314
C        4.96433062      -5.00719858       6.75865816
C        3.96910996      -4.17662741       5.89716227
C        4.33591460      -4.32058111       4.31184147
C        3.43069978      -3.42786836       3.41569881
C        3.73810828      -2.07068894       3.18966179
C        2.92921691      -1.25983108       2.38556363
C        1.79106346      -1.79106346       1.79106346
C        1.45051881      -3.12150099       2.00101647
C        2.25988608      -3.92863832       2.80827247
N        4.26159705      -5.73892602       3.86631140
C        5.82912743      -3.96661888       4.05833644
C        2.50469337      -4.61107619       6.19229740
C        2.18594107      -5.93369186       6.55932505
C        0.86861557      -6.32101233       6.83141330
C       -0.16093950      -5.39288196       6.73203561
C        0.11374895      -4.08429029       6.35581301
C        1.43203078      -3.70016006       6.08728239
N        4.19313754      -2.79479355       6.40356036
H        4.66379887      -5.02858161       7.81440306
H        5.97860253      -4.59079194       6.72846379
H        5.04393063      -6.04595370       6.42080796
H        4.61703739      -1.61460256       3.64103423
H        3.20118132      -0.21882325       2.23078130
H        0.55850621      -3.54464827       1.54634686
H        1.94307032      -4.95742693       2.95906235
H        4.39891296      -5.77244043       2.85685088
H        3.33232535      -6.10565535       4.05535781
H        6.05700673      -3.92982633       2.98499431
H        6.50690126      -4.70725451       4.49972154
H        6.10716991      -2.99686425       4.48420262
H        2.95840444      -6.69523705       6.64038653
H        0.66252234      -7.34831347       7.12099595
H       -0.68504729      -3.35271587       6.26503054
H        1.59762358      -2.67074567       5.77908856
H        3.86911159      -2.74801200       7.36945796
H        3.62434834      -2.14040822       5.87384025
C       -1.51614908      -5.78940408       7.01448418
C       -2.65113710      -6.12149135       7.25103486
Br      -4.48631675      -6.65844839       7.63351730
C       -0.00445707       0.01189536      -1.78238275
H       -0.66409135       0.67374010      -2.43557963
H        0.65740317      -0.63156657      -2.45157240
C       -0.90989263      -0.90692880      -0.91072765
C        0.90977584       0.90977584      -0.90977584
C       -0.00465871       1.77757030       0.00794375
H       -0.66225468       2.44313916      -0.64384735
H        0.64322798       2.43503045       0.67728295
C       -1.78241447       0.00034974      -0.00472694
H       -2.45427497      -0.65498947       0.64260836
H       -2.43311707       0.67328779      -0.65473579
C       -0.91132561       0.90220522       0.91563759
C       -0.01476271      -0.02253852       1.78660255
H       -0.67934791      -0.69751639       2.42135241
H        0.63392994       0.61504881       2.47327442
C        0.01484550      -1.77751727      -0.01636693
H        0.67870853      -2.42144646      -0.68295456
H       -0.62264859      -2.45592969       0.64226336
C        1.78714474       0.01002794       0.00389507
H        2.44202412       0.67113390       0.66197326
H        2.45385902      -0.65136977      -0.64189061
C        0.91606151      -0.90478549       0.90901405
