194
Properties=species:S:1:pos:R:3 pbc="F F F"
C        4.63732867       3.54695827      -5.58365707
C        4.31271228       4.32190053      -4.29574929
C        3.41916515       3.44073430      -3.40395384
C        3.98100183       2.52859920      -2.48761876
C        3.17602685       1.71569669      -1.68313341
C        1.79147752       1.79147752      -1.79147752
C        1.20568921       2.66237446      -2.70417386
C        2.01330800       3.47272668      -3.50890773
C        3.69354589       5.58446978      -4.62391820
C        3.18322642       6.62509315      -4.89441031
C        2.54318601       7.98748499      -5.18445514
C        2.04505163       9.06433819      -5.36210173
C        1.41790502      10.39459455      -5.53361515
C        1.18297733      10.69886217      -7.02204865
C       -0.08730810      11.00330001      -7.54532167
C       -0.26333068      11.29582450      -8.90304654
C        0.83022289      11.29165280      -9.76229068
C        2.09856688      10.99198773      -9.27910749
C        2.27120729      10.69601112      -7.92334454
N        2.31325010      11.40892731      -4.95923727
C        0.14327429      10.42535786      -4.66568894
N        5.58542654       4.62665941      -3.62377297
H        3.72612274       3.30359958      -6.14494438
H        5.14960899       2.60048533      -5.37034689
H        5.28126912       4.12840242      -6.25595506
H        5.06286284       2.44381790      -2.39403583
H        3.64207651       1.03013933      -0.98060809
H        0.12476383       2.72025815      -2.80113489
H        1.52321805       4.13313456      -4.22185770
H       -0.97139687      11.01954291      -6.91281961
H       -1.25864496      11.52538193      -9.27541223
H        2.95830031      10.98337990      -9.94392006
H        3.27391137      10.45602297      -7.57296077
H        1.92392217      12.32982540      -5.15274778
H        3.20889642      11.37460554      -5.43923320
H       -0.35017068      11.40470972      -4.69372528
H        0.36815687      10.20644116      -3.61319751
H       -0.58423325       9.67199236      -4.99319409
H        5.37527137       5.17155448      -2.78787107
H        6.13700057       5.23592007      -4.22501942
C        0.64726803      11.59856187     -11.15725819
C        0.49404335      11.85559821     -12.32554348
Br       0.24629198      12.27120423     -14.21456198
C       -3.80305499      -5.74080544      -4.22408359
C       -4.31774377      -4.29480153      -4.31781680
C       -3.43644848      -3.40069825      -3.42670656
C       -2.25736326      -2.81229277      -3.92756376
C       -1.44490168      -2.00921764      -3.12073763
C       -1.79147752      -1.79147752      -1.79147752
C       -2.93456541      -2.37851326      -1.25915886
C       -3.74416165      -3.18287465      -2.06790612
C       -5.71214663      -4.24368350      -3.94610374
C       -6.86143053      -4.20156361      -3.63973573
C       -8.34676484      -4.09126121      -3.27710009
C       -9.50791676      -3.95635554      -3.00721925
C      -10.93377783      -3.74115317      -2.67118372
C      -11.59866932      -5.06009180      -2.24512703
C      -12.23596694      -5.22404201      -1.00130462
C      -12.84991173      -6.43296430      -0.65266433
C      -12.83961713      -7.50013534      -1.54441390
C      -12.21615716      -7.37330271      -2.78020224
C      -11.59995149      -6.16613114      -3.12448033
N      -11.61631787      -3.20686042      -3.85823639
C      -11.00029974      -2.62060010      -1.61342126
N       -4.23062246      -3.87897130      -5.72626518
H       -3.85914834      -6.11988695      -3.19563141
H       -2.75633914      -5.82115632      -4.54294574
H       -4.39342240      -6.42319474      -4.84900946
H       -1.96007415      -2.97849412      -4.96214830
H       -0.54773414      -1.56347538      -3.54161440
H       -3.20666582      -2.22061093      -0.21888012
H       -4.62388982      -3.63779817      -1.61652233
H      -12.27044239      -4.41851416      -0.27200909
H      -13.33228379      -6.52698489       0.31711949
H      -12.20057713      -8.20299413      -3.48202902
H      -11.11113983      -6.09669744      -4.09505783
H      -12.61193747      -3.13949461      -3.65506326
H      -11.52852354      -3.87210262      -4.62210901
H      -12.03392038      -2.36098999      -1.35335396
H      -10.51593360      -1.70170664      -1.97015530
H      -10.48261086      -2.90858265      -0.68975968
H       -4.60475055      -2.93301059      -5.79693577
H       -4.84851211      -4.46772617      -6.28170178
C      -13.47687641      -8.74060282      -1.18560887
C      -14.01058105      -9.77949433      -0.88510966
Br     -14.87353632     -11.45929404      -0.39922784
C       -4.65395052       3.53933710       5.57465640
C       -4.31249854       4.32203783       4.29582573
C       -3.41886510       3.44085654       3.40413165
C       -3.98056913       2.54083750       2.47581316
C       -3.17566261       1.72793154       1.67126280
C       -1.79147752       1.79147752       1.79147752
C       -1.20612892       2.65009439       2.71601422
C       -2.01370183       3.46046988       3.52077069
C       -3.68579841       5.57677964       4.63935582
C       -3.16926966       6.61095148       4.92250873
C       -2.52057284       7.96564808       5.22890521
C       -2.01517276       9.03690208       5.41941671
C       -1.37865857      10.36053473       5.60692143
C       -1.15347324      10.65075513       7.09965978
C        0.11491348      10.94050602       7.63572104
C        0.28217355      11.22052960       8.99718430
C       -0.81838415      11.21833605       9.84744617
C       -2.08511938      10.93301576       9.35152697
C       -2.24904164      10.64949660       7.99202470
N       -2.26098915      11.38680870       5.03361683
C       -0.09674841      10.38790444       4.74966824
N       -5.57714214       4.64267196       3.61604484
H       -3.74938465       3.28396223       6.14131982
H       -5.17214324       2.59886057       5.34943739
H       -5.29863152       4.12055486       6.24644023
H       -5.06228023       2.46569055       2.37274578
H       -3.64149643       1.05195168       0.95937581
H       -0.12559975       2.69832573       2.82223139
H       -1.52411924       4.11102013       4.24307094
H        1.00425992      10.95464346       7.01058209
H        1.27623561      11.43888588       9.37949893
H       -2.95031486      10.92605055      10.00923487
H       -3.25075800      10.42059215       7.63154494
H       -1.86578625      12.30288088       5.23782822
H       -3.16078928      11.35592823       5.50601765
H        0.40439620      11.36291840       4.78974212
H       -0.31476873      10.17940263       3.69362418
H        0.62190112       9.62596320       5.07689112
H       -5.35571910       5.19260415       2.78637367
H       -6.12865431       5.25152493       4.21776082
C       -0.64438060      11.51238364      11.24632386
C       -0.49865262      11.75864849      12.41788392
Br      -0.26302282      12.15683793      14.31219745
C        4.14708915      -5.75493363       3.86592124
C        4.31277920      -4.29572591       4.32185699
C        3.43044919      -3.40001150       3.43339261
C        2.08279805      -3.15080030       3.76362144
C        1.27136924      -2.34856975       2.95491796
C        1.79147752      -1.79147752       1.79147752
C        3.10980577      -2.03892655       1.42350520
C        3.91842177      -2.84331203       2.23320861
C        5.70643083      -3.92067014       4.27483290
C        6.85509777      -3.61155684       4.23607526
C        8.32170588      -3.16559513       4.22782514
C        9.45531443      -2.77315446       4.24302266
C       10.83747607      -2.24266941       4.26596925
C       11.83578949      -3.30024151       3.76785715
C       12.70243060      -3.07692965       2.68195333
C       13.61442682      -4.05452990       2.26658363
C       13.67771920      -5.27371970       2.93272747
C       12.83379476      -5.52850650       4.00736084
C       11.92077381      -4.55204455       4.41774460
N       11.16847304      -1.86545964       5.64748200
C       10.84591877      -0.92647172       3.46193060
N        3.89114884      -4.21570821       5.72900189
H        4.46402247      -5.88714199       2.82350224
H        3.10297779      -6.08538499       3.93207842
H        4.75122778      -6.44113731       4.47326152
H        1.65083108      -3.58610830       4.66377718
H        0.23935691      -2.16942715       3.24403987
H        3.52037632      -1.61479886       0.51098169
H        4.94104326      -3.02776115       1.90940591
H       12.69020368      -2.13982242       2.13093955
H       14.26889147      -3.85050704       1.42275069
H       12.87422485      -6.47956171       4.53181372
H       11.26529142      -4.78098669       5.25661699
H       12.14592666      -1.58145329       5.67911539
H       11.09312092      -2.68469641       6.24491784
H       11.82840205      -0.43885828       3.48100400
H       10.11954088      -0.20632521       3.86192945
H       10.57366496      -1.09492342       2.41236483
H        4.03383546      -3.25653283       6.04432863
H        4.51375626      -4.79213749       6.29204631
C       14.62070638      -6.27531323       2.50706848
C       15.41045815      -7.11414781       2.15057907
Br      16.68741996      -8.47047238       1.57416586
C       -0.00445707       0.01189536      -1.78238275
H       -0.66409135       0.67374010      -2.43557963
H        0.65740317      -0.63156657      -2.45157240
C       -0.90989263      -0.90692880      -0.91072765
C        0.90977584       0.90977584      -0.90977584
C       -0.00465871       1.77757030       0.00794375
H       -0.66225468       2.44313916      -0.64384735
H        0.64322798       2.43503045       0.67728295
C       -1.78241447       0.00034974      -0.00472694
H       -2.45427497      -0.65498947       0.64260836
H       -2.43311707       0.67328779      -0.65473579
C       -0.91132561       0.90220522       0.91563759
C       -0.01476271      -0.02253852       1.78660255
H       -0.67934791      -0.69751639       2.42135241
H        0.63392994       0.61504881       2.47327442
C        0.01484550      -1.77751727      -0.01636693
H        0.67870853      -2.42144646      -0.68295456
H       -0.62264859      -2.45592969       0.64226336
C        1.78714474       0.01002794       0.00389507
H        2.44202412       0.67113390       0.66197326
H        2.45385902      -0.65136977      -0.64189061
C        0.91606151      -0.90478549       0.90901405
