165
Properties=species:S:1:pos:R:3 pbc="F F F"
C        0.00000000       0.00000000       0.00000000
C        3.72742465       2.63705425      -4.67375305
C        3.40280826       3.41199650      -3.38584527
C        2.50926112       2.53083028      -2.49404981
C        3.07109781       1.61869517      -1.57771473
C        2.26612282       0.80579266      -0.77322939
C        0.88157349       0.88157349      -0.88157349
C        0.29578519       1.75247043      -1.79426984
C        1.10340397       2.56282266      -2.59900371
C        2.78364186       4.67456576      -3.71401418
C        2.27332240       5.71518912      -3.98450628
C        1.63328199       7.07758096      -4.27455112
C        1.13514761       8.15443416      -4.45219771
C        0.50800100       9.48469053      -4.62371112
C        0.27307330       9.78895815      -6.11214463
C       -0.99721212      10.09339598      -6.63541764
C       -1.17323471      10.38592047      -7.99314251
C       -0.07968114      10.38174878      -8.85238666
C        1.18866286      10.08208371      -8.36920347
C        1.36130327       9.78610709      -7.01344052
Br      -0.31975283      10.78447206     -10.68285031
N        1.40334607      10.49902328      -4.04933325
C       -0.76662973       9.51545383      -3.75578492
N        4.67552252       3.71675539      -2.71386895
H        2.81621871       2.39369556      -5.23504036
H        4.23970496       1.69058130      -4.46044286
H        4.37136510       3.21849839      -5.34605104
H        4.15295882       1.53391387      -1.48413180
H        2.73217248       0.12023530      -0.07070407
H       -0.78514019       1.81035413      -1.89123086
H        0.61331403       3.22323054      -3.31195368
H       -1.88130090      10.10963888      -6.00291558
H       -2.16854898      10.61547790      -8.36550820
H        2.04839629      10.07347588      -9.03401604
H        2.36400735       9.54611894      -6.66305674
H        1.01401814      11.41992138      -4.24284376
H        2.29899239      10.46470152      -4.52932918
H       -1.26007471      10.49480570      -3.78382126
H       -0.54174715       9.29653714      -2.70329348
H       -1.49413728       8.76208834      -4.08329007
H        4.46536735       4.26165046      -1.87796704
H        5.22709654       4.32601605      -3.31511540
C       -2.72807417      -4.75506530      -3.55509248
C       -3.41043907      -3.38522438      -3.40498657
C       -2.52933830      -2.49241623      -2.51238669
C       -1.49776211      -1.70572934      -3.06401627
C       -0.68495938      -0.90188090      -2.25830460
C       -0.88157349      -0.88157349      -0.88157349
C       -1.87382148      -1.66587277      -0.30283121
C       -2.68390045      -2.47040647      -1.11092343
C       -4.74285112      -3.55460294      -2.87476774
C       -5.84104037      -3.69421858      -2.43775885
C       -7.27089448      -3.81584625      -1.89867334
C       -8.39590534      -3.86142548      -1.48444865
C       -9.78238889      -3.86909969      -0.96491407
C      -10.23434746      -5.30164463      -0.63818398
C      -10.68523997      -5.68487384       0.63851231
C      -11.10928665      -6.99377402       0.89723240
C      -11.09236457      -7.94337212      -0.11871760
C      -10.64989294      -7.59938960      -1.39066750
C      -10.22286458      -6.29241876      -1.64556755
Br     -11.67256734      -9.70709407       0.23209187
N      -10.66662578      -3.29562563      -1.98945119
C       -9.83957678      -2.89280994       0.22777770
N       -3.55111155      -2.80535675      -4.74967856
H       -2.60942509      -5.25186614      -2.58366340
H       -1.72823175      -4.66478912      -3.99770827
H       -3.31245918      -5.43220901      -4.19124633
H       -1.31796204      -1.71480158      -4.13824087
H        0.09512028      -0.30074700      -2.71748513
H       -2.02713787      -1.66240960       0.77310267
H       -3.44186935      -3.08180801      -0.62482088
H      -10.71716495      -4.97784024       1.46375163
H      -11.45035107      -7.25740514       1.89531908
H      -10.63035721      -8.33574399      -2.18978701
H       -9.87278015      -6.05210474      -2.64829813
H      -11.62940275      -3.37912200      -1.66825853
H      -10.60240655      -3.85372111      -2.83689543
H      -10.85424868      -2.79813821       0.63383464
H       -9.51150578      -1.88530962      -0.06126806
H       -9.17917200      -3.21485527       1.04278614
H       -4.03557725      -1.91293696      -4.65647064
H       -4.16432755      -3.40158769      -5.30231274
C       -3.92340417       2.56036079       4.55446699
C       -3.40024670       3.41346848       3.38693485
C       -2.50573959       2.53202510       2.49637653
C       -3.05331161       1.76951652       1.44467959
C       -2.24911443       0.95664347       0.63938698
C       -0.88157349       0.88157349       0.88157349
C       -0.31369452       1.60114024       1.92769070
C       -1.12077011       2.41173181       2.73272842
C       -2.70413959       4.57134607       3.89673614
C       -2.13040589       5.52568078       4.31693113
C       -1.40059081       6.78383233       4.80099093
C       -0.82619898       7.78381938       5.13176111
C       -0.10010727       9.02233117       5.49396422
C        0.00986016       9.16322559       7.02081065
C        1.24320297       9.28811902       7.68668545
C        1.30697396       9.43535185       9.07745039
C        0.13630567       9.46301094       9.82774904
C       -1.09873463       9.33896618       9.20224923
C       -1.15967096       9.18779096       7.81338896
Br       0.22578228       9.66949635      11.70385546
N       -0.83571143      10.17055771       4.94543346
C        1.25325982       9.00347737       4.75439147
N       -4.56497748       3.90595793       2.63521144
H       -3.09993978       2.17546607       5.16954877
H       -4.49622122       1.69423822       4.20026969
H       -4.57595685       3.13978676       5.22017092
H       -4.12332760       1.80366713       1.24400976
H       -2.70263340       0.38924585      -0.16876740
H        0.75258174       1.54012898       2.12889756
H       -0.64680235       2.95082435       3.55087154
H        2.18452425       9.27279738       7.14298043
H        2.27632823       9.52777154       9.56099380
H       -2.01849933       9.35641711       9.78097177
H       -2.13952951       9.08376741       7.34988611
H       -0.38503696      11.02561340       5.26613291
H       -1.77470114      10.18314989       5.33517207
H        1.82919779       9.92109678       4.92665327
H        1.11694421       8.90606911       3.66895856
H        1.87157121       8.15343958       5.06937276
H       -4.22210493       4.50124573       1.88163419
H       -5.11628169       4.51011398       3.24183232
C        2.63732149      -4.67406071       3.72684975
C        3.41199171      -3.38584267       3.40281564
C        2.53082598      -2.49404373       2.50927151
C        1.61827369      -1.57812476       3.07110926
C        0.80537133      -0.77364165       2.26613190
C        0.88157349      -0.88157349       0.88157349
C        1.75289335      -1.79385860       0.29577351
C        2.56324476      -2.59859170       1.10339388
C        4.67482826      -3.71348043       2.78391311
C        5.71567193      -3.98353475       2.27381112
C        7.07832618      -4.27301437       1.63407352
C        8.15537003      -4.45021640       1.13619304
C        9.48585171      -4.62117732       0.50937362
C        9.79060580      -6.10945851       0.27411176
C       10.09554985      -6.63228695      -0.99623530
C       10.38850729      -7.98987947      -1.17255848
C       10.38426954      -8.84943344      -0.07924868
C       10.08411012      -8.36669292       1.18914699
C        9.78770206      -7.01106235       1.36208647
Br      10.78757729     -10.67971551      -0.31972326
N       10.49976954      -4.04676598       1.40516708
C        9.51672973      -3.75288267      -0.76500337
N        3.71620168      -2.71413970       4.67580549
H        2.39437844      -5.23515941       2.81541677
H        1.69064382      -4.46116228       4.23892303
H        3.21877365      -5.34637633       4.37076455
H        1.53316065      -1.48487118       4.15297266
H        0.11948416      -0.07144144       2.73218625
H        1.81110948      -1.89049813      -0.78516281
H        3.22399218      -3.31121687       0.61328920
H       10.11186370      -5.99953077      -1.88014091
H       10.61845073      -8.36189935      -2.16791296
H       10.07544733      -9.03175058       2.04869029
H        9.54733202      -6.66102940       2.36482160
H       11.42083207      -4.23990666       1.01604454
H       10.46533051      -4.52702440       2.30066817
H       10.49622869      -3.78050330      -1.25817974
H        9.29745245      -2.70051658      -0.53988557
H        8.76366207      -4.08039503      -1.49281597
H        4.26092003      -1.87802475       4.46604007
H        4.32547636      -3.31536986       5.22738178
