162
Properties=species:S:1:pos:R:3 pbc="F F F"
N        3.19849721       1.41530909      -1.58360828
C        1.83220821       1.83220821      -1.83220821
C        1.59381108       3.30145846      -1.50716839
C        0.30085756       3.63117641      -2.24779991
C        0.35894232       2.80069035      -3.53758978
H       -0.62587049       2.36233303      -3.73786841
C        1.40024392       1.68850986      -3.29259286
C        0.75110826       3.63549529      -4.68769791
C        1.09035853       4.30863042      -5.62204024
C        1.54873803       5.16122194      -6.80940781
C        1.92831001       5.82713207      -7.73139955
C        2.41434738       6.65054098      -8.85709593
H        1.60067232       6.77083179      -9.58104362
C        3.63395991       6.00875735      -9.51967010
C        4.80365449       6.49180272      -8.66781120
C        4.44464709       7.94345446      -8.35121165
C        2.90750597       8.02040177      -8.35841000
N        5.04860704       8.40283792      -7.11467258
Br       5.15335281       9.10387069      -9.76906205
H        3.83232138       1.89403874      -2.22061689
H        3.28021445       0.42064201      -1.78759633
H        2.40302856       3.92499657      -1.90978292
H        1.51357681       3.51356453      -0.43564566
H       -0.56108052       3.31675865      -1.64656266
H        0.19684230       4.70829962      -2.41774037
H        0.98061147       0.70146988      -3.52137348
H        2.26209713       1.81552472      -3.96209915
H        3.73946312       6.37759744     -10.54697404
H        3.58487315       4.91555118      -9.56027994
H        4.84855855       5.89002908      -7.75043525
H        5.76164060       6.36671234      -9.18363975
H        2.50355387       8.25034939      -7.36380650
H        2.53550984       8.80986176      -9.02284664
H        4.63702783       7.90876161      -6.32475718
H        4.82421629       9.38817177      -6.98704789
N       -0.99013327      -2.28501374      -2.92226756
C       -1.83220821      -1.83220821      -1.83220821
C       -3.04639391      -1.04580896      -2.31023506
C       -3.99174177      -1.07552649      -1.11256562
C       -3.77515157      -2.45255674      -0.46951414
H       -3.74696866      -2.34899712       0.62163483
C       -2.41872919      -2.96910853      -0.99350892
C       -4.86029303      -3.38256673      -0.83144170
C       -5.73173577      -4.14787771      -1.14141570
C       -6.82915995      -5.13227629      -1.55793155
C       -7.67814274      -5.90517696      -1.90352192
C       -8.71748205      -6.85513736      -2.34936488
H       -9.34099020      -7.12261675      -1.48894078
C       -8.08955253      -8.10451521      -2.96831961
C       -7.84129476      -7.70301665      -4.41895699
C       -9.07694474      -6.87993292      -4.78243554
C       -9.57223879      -6.24160310      -3.47247585
N       -8.80862794      -5.92044043      -5.83704916
Br     -10.46674182      -8.08145974      -5.47808399
H       -1.49012912      -2.96452799      -3.49231990
H       -0.18367639      -2.77109759      -2.53367881
H       -3.52896891      -1.55216944      -3.15666970
H       -2.81888244      -0.02106341      -2.62284115
H       -3.71252179      -0.28921029      -0.40050871
H       -5.02783277      -0.88335419      -1.41169533
H       -1.76769752      -3.27138459      -0.16437272
H       -2.56238874      -3.86672258      -1.61060968
H       -8.79826627      -8.94023155      -2.92553678
H       -7.16719229      -8.42248821      -2.47102377
H       -6.93260433      -7.08851487      -4.46790368
H       -7.67640133      -8.57548653      -5.06010484
H       -9.48103675      -5.14766606      -3.48900695
H      -10.63238519      -6.45117242      -3.28466063
H       -8.17176163      -5.20207918      -5.49670581
H       -9.67739769      -5.44561358      -6.07642469
N       -3.16950918       1.74996691       1.27793849
C       -1.83220821       1.83220821       1.83220821
C       -1.28917144       3.25545660       1.85780989
C       -0.13740397       3.18583931       2.85659061
C       -0.59552801       2.17985459       3.92183985
H        0.23991832       1.52293793       4.19131134
C       -1.73695712       1.36023861       3.28415092
C       -1.06756843       2.87157325       5.13515979
C       -1.47182555       3.43284946       6.11635417
C       -2.01232545       4.14893855       7.35810379
C       -2.45417473       4.71352871       8.31913818
C       -3.01370396       5.41746467       9.49081566
H       -2.35601942       5.24620256      10.35032574
C       -4.43278412       4.93531942       9.79428381
C       -5.30642403       5.78248065       8.87436372
C       -4.65173028       7.16278754       8.92479538
C       -3.15763842       6.92293163       9.20574769
N       -4.90538046       7.93663168       7.72410538
Br      -5.42885375       8.18799716      10.40943464
H       -3.83004827       2.23366198       1.88326676
H       -3.45702116       0.77292511       1.25850653
H       -2.04683754       3.95391792       2.23705259
H       -0.95804005       3.62380053       0.88094642
H        0.76349384       2.80818699       2.35754764
H        0.10936552       4.17502812       3.25721969
H       -1.54466472       0.28434353       3.37444657
H       -2.68316515       1.54564325       3.81091260
H       -4.68164836       5.13989266      10.84249358
H       -4.57743929       3.86406896       9.61919602
H       -5.26415624       5.36537290       7.85949374
H       -6.35644785       5.77011650       9.18542834
H       -2.52692752       7.22966810       8.36111415
H       -2.80138801       7.49700558      10.06982465
H       -4.43066133       7.50906830       6.93081699
H       -4.49736645       8.86279760       7.83927190
N        0.94519810      -2.46026042       2.79195605
C        1.83220821      -1.83220821       1.83220821
C        2.91817371      -0.99192151       2.49234271
C        3.96356043      -0.82281541       1.39345804
C        3.93812043      -2.14510081       0.61400121
H        3.99608454      -1.93968425      -0.46143783
C        2.59705313      -2.82697099       0.95732253
C        5.07186011      -3.00669767       0.99574369
C        5.98241160      -3.71877369       1.31984389
C        7.12877635      -4.63847874       1.75211269
C        8.01466171      -5.36348788       2.10869204
C        9.09753989      -6.25698172       2.56746268
H        9.81712727      -6.38440950       1.75101096
C        8.54105941      -7.61054970       3.01077824
C        8.12872247      -7.37418446       4.46036147
C        9.24249806      -6.48459469       5.01222045
C        9.78712665      -5.68187488       3.81731621
N        8.79126983      -5.65857944       6.11626825
Br      10.67514349      -7.62079438       5.73034768
H        1.45634811      -3.14499575       3.34563316
H        0.22665712      -2.97559110       2.28620457
H        3.37106563      -1.53316546       3.33357695
H        2.56631882      -0.02607353       2.87039466
H        3.67348002       0.00090463       0.72966540
H        4.94597631      -0.57007688       1.80682910
H        2.05360057      -3.10392416       0.04593010
H        2.77180914      -3.76379431       1.50411755
H        9.32806294      -8.37271409       2.96325757
H        7.70094832      -7.95890971       2.40084624
H        7.16424145      -6.84951253       4.47526891
H        7.99302490      -8.31551362       5.00345417
H        9.58976363      -4.60689733       3.92104879
H       10.87492571      -5.77837424       3.71491830
H        8.12048599      -4.96950832       5.78055232
H        9.58578973      -5.13454481       6.47910142
C       -0.00445707       0.01189536      -1.78238275
H       -0.66409135       0.67374010      -2.43557963
H        0.65740317      -0.63156657      -2.45157240
C       -0.90989263      -0.90692880      -0.91072765
C        0.90977584       0.90977584      -0.90977584
C       -0.00465871       1.77757030       0.00794375
H       -0.66225468       2.44313916      -0.64384735
H        0.64322798       2.43503045       0.67728295
C       -1.78241447       0.00034974      -0.00472694
H       -2.45427497      -0.65498947       0.64260836
H       -2.43311707       0.67328779      -0.65473579
C       -0.91132561       0.90220522       0.91563759
C       -0.01476271      -0.02253852       1.78660255
H       -0.67934791      -0.69751639       2.42135241
H        0.63392994       0.61504881       2.47327442
C        0.01484550      -1.77751727      -0.01636693
H        0.67870853      -2.42144646      -0.68295456
H       -0.62264859      -2.45592969       0.64226336
C        1.78714474       0.01002794       0.00389507
H        2.44202412       0.67113390       0.66197326
H        2.45385902      -0.65136977      -0.64189061
C        0.91606151      -0.90478549       0.90901405
