162
Properties=species:S:1:pos:R:3 pbc="F F F"
C        1.83150745       1.83150745      -1.83150745
H        2.84934820       1.46255127      -1.67946129
C        1.66692506       3.29035315      -1.44107426
C        0.42919138       3.73236167      -2.21453329
C        0.55250638       3.01270335      -3.56754963
C        1.37628131       1.73345132      -3.28630538
N       -0.77106027       2.70552252      -4.09906290
C        1.24621781       3.86911038      -4.54989061
C        1.78049243       4.55533322      -5.37756919
C        2.42220860       5.41530109      -6.47173726
C        2.88871196       6.07324623      -7.36096439
C        3.42886234       6.86682581      -8.48251927
N        2.35407295       7.06924385      -9.44510375
C        4.62419346       6.15848636      -9.12987345
C        5.78191085       6.48278193      -8.18947524
C        5.51376228       7.91714623      -7.74585231
H        5.81557127       8.09240725      -6.70936192
C        4.02394776       8.19582562      -7.98342904
Br       6.59751554       9.14961039      -8.81431169
H        2.53754469       3.86495815      -1.77954094
H        1.55572876       3.45420741      -0.36468856
H       -0.46796449       3.41028958      -1.67005045
H        0.37727313       4.82365398      -2.30106649
H        0.81005140       0.81584820      -3.48731414
H        2.25984424       1.68801259      -3.93703899
H       -1.25918605       2.07228572      -3.46706129
H       -0.67390413       2.20437633      -4.98164378
H        2.68161271       7.64200501     -10.22078190
H        1.59858319       7.59270211      -9.00439760
H        4.83988139       6.57169308     -10.12395019
H        4.48499516       5.07722325      -9.24009944
H        5.74095186       5.81829358      -7.31753254
H        6.75262340       6.32620076      -8.67016859
H        3.54341804       8.53806101      -7.05810821
H        3.87339430       8.99429934      -8.72094257
C       -1.83150745      -1.83150745      -1.83150745
H       -2.71231180      -1.22376297      -2.05528599
C       -2.17220433      -3.12132065      -1.10482749
C       -0.97201356      -4.01962413      -1.38444866
C       -0.59249205      -3.70051725      -2.83975005
C       -1.06382651      -2.24727393      -3.08493756
N        0.84630110      -3.84885842      -3.03096783
C       -1.26955694      -4.62750213      -3.76815973
C       -1.78313113      -5.38634385      -4.54391986
C       -2.38840879      -6.35933999      -5.56149817
C       -2.81736169      -7.12369753      -6.38186335
C       -3.30308938      -8.06427621      -7.41084182
N       -2.14700300      -8.75651714      -7.96490042
C       -4.08161998      -7.32560964      -8.50532365
C       -5.45854354      -7.11415553      -7.88146896
C       -5.70702084      -8.38851077      -7.08122921
H       -6.26254170      -8.19570917      -6.15908956
C       -4.34105138      -9.03791957      -6.82423146
Br      -6.83589305      -9.60700788      -8.11853670
H       -3.07462648      -3.56554282      -1.54187448
H       -2.34698386      -2.99591367      -0.03172721
H       -0.16031812      -3.75932985      -0.69272757
H       -1.21160277      -5.07553089      -1.21485994
H       -0.23295117      -1.56823569      -3.31202688
H       -1.73651213      -2.19676004      -3.95162365
H        1.34412676      -3.18460101      -2.43968670
H        1.08715049      -3.60744198      -3.99182448
H       -2.44661973      -9.43934059      -8.65843930
H       -1.68306911      -9.28534550      -7.22726830
H       -4.18458385      -7.94483584      -9.40610498
H       -3.62362515      -6.37571547      -8.80297723
H       -5.42189665      -6.25655223      -7.19832910
H       -6.21822054      -6.89307516      -8.63769706
H       -4.18800622      -9.20160987      -5.74997117
H       -4.26536644     -10.02439947      -7.29887030
C       -1.83150745       1.83150745       1.83150745
H       -1.23596219       2.72692792       2.02847065
C       -2.21441617       1.08562388       3.09831242
C       -3.43039533       0.26604671       2.67964430
C       -4.20462110       1.19646900       1.73166925
C       -3.14423199       2.13848996       1.11331606
N       -4.90222993       0.41576446       0.71553077
C       -5.21487466       1.97329976       2.47704437
C       -6.06482371       2.59603146       3.05253967
C       -7.18603817       3.37889247       3.74431630
C       -8.09487085       3.98094394       4.24710779
C       -9.23890534       4.71043612       4.82886595
N      -10.45700782       4.18439501       4.22701773
C       -9.10891577       6.21823486       4.58540264
C       -8.12424390       6.66875069       5.66117343
C       -8.48185730       5.81886120       6.87604232
H       -7.60110308       5.55013221       7.46610515
C       -9.24747960       4.59212946       6.36359336
Br      -9.62029766       6.85181581       8.08932416
H       -2.50321434       1.80182940       3.87700004
H       -1.41672957       0.45493170       3.50296346
H       -3.09092828      -0.64050722       2.16195448
H       -4.01411632      -0.06009932       3.54797660
H       -3.06341292       2.02435302       0.02544780
H       -3.41010738       3.19024793       1.28454051
H       -4.22724089      -0.09491900       0.14783905
H       -5.38793058       1.04608865       0.07809674
H      -11.27266919       4.64316753       4.62856289
H      -10.54704857       3.19474087       4.45389346
H      -10.06869466       6.72922173       4.73760829
H       -8.75151894       6.47012297       3.58067595
H       -7.10148461       6.43422709       5.34106628
H       -8.17098969       7.74931558       5.82868748
H       -8.76672104       3.66695719       6.70590902
H      -10.27455627       4.56508432       6.74899562
C        1.83150745      -1.83150745       1.83150745
H        1.20121768      -2.68035414       2.10978894
C        2.32401317      -1.04203135       3.03230794
C        3.55640594      -0.31540780       2.50427261
C        4.22566288      -1.33687916       1.57021731
C        3.08367918      -2.24942007       1.06293875
N        4.90563392      -0.65166444       0.47622680
C        5.23345247      -2.12848368       2.30328264
C        6.08007034      -2.76647940       2.86684511
C        7.19515990      -3.57317264       3.54091441
C        8.09750323      -4.19771860       4.02770075
C        9.23200509      -4.95832988       4.58787244
N       10.44063449      -4.53421744       3.89356862
C        9.00861539      -6.46725875       4.43667914
C        8.06333329      -6.80399067       5.58684407
C        8.53323094      -5.91215980       6.73137008
H        7.70251246      -5.56344178       7.35138619
C        9.33298604      -4.75930426       6.11091211
Br       9.68147764      -6.94145298       7.93850701
H        2.61759719      -1.73092587       3.83352072
H        1.58494091      -0.34694832       3.44273550
H        3.23706962       0.57997897       1.95528488
H        4.20445202       0.02314020       3.32068178
H        2.94810403      -2.18889659      -0.02378688
H        3.30248056      -3.30385659       1.27855867
H        4.22793651      -0.13478774      -0.08256330
H        5.32060684      -1.34123843      -0.14972929
H       11.25201594      -5.01606347       4.27632021
H       10.59573002      -3.54052213       4.05943075
H        9.94691291      -7.02250206       4.56610970
H        8.58250644      -6.75172265       3.46808877
H        7.03812828      -6.52977053       5.30887916
H        8.06192159      -7.87504515       5.81202600
H        8.92204316      -3.79172405       6.42582005
H       10.38006014      -4.76951080       6.43906527
C       -0.00445707       0.01189536      -1.78238275
H       -0.66409135       0.67374010      -2.43557963
H        0.65740317      -0.63156657      -2.45157240
C       -0.90989263      -0.90692880      -0.91072765
C        0.90977584       0.90977584      -0.90977584
C       -0.00465871       1.77757030       0.00794375
H       -0.66225468       2.44313916      -0.64384735
H        0.64322798       2.43503045       0.67728295
C       -1.78241447       0.00034974      -0.00472694
H       -2.45427497      -0.65498947       0.64260836
H       -2.43311707       0.67328779      -0.65473579
C       -0.91132561       0.90220522       0.91563759
C       -0.01476271      -0.02253852       1.78660255
H       -0.67934791      -0.69751639       2.42135241
H        0.63392994       0.61504881       2.47327442
C        0.01484550      -1.77751727      -0.01636693
H        0.67870853      -2.42144646      -0.68295456
H       -0.62264859      -2.45592969       0.64226336
C        1.78714474       0.01002794       0.00389507
H        2.44202412       0.67113390       0.66197326
H        2.45385902      -0.65136977      -0.64189061
C        0.91606151      -0.90478549       0.90901405
