114
Properties=species:S:1:pos:R:3 pbc="F F F"
C        1.82355118       1.82355118      -1.82355118
C        2.52097817       2.89869764      -1.00316910
C        1.58802569       3.97690988      -0.43752361
H        0.85956573       3.55521566       0.26434900
C        2.35151907       5.12313601       0.26473370
H        3.04537033       5.59531746      -0.44142964
C        3.09815579       4.68023233       1.52343324
C        3.76330457       5.85624336       2.22225534
O        1.39598792       6.12959814       0.62651804
O        0.83929570       4.57817342      -1.50742674
H        1.18786950       2.23170843      -2.61307281
H        2.55648324       1.14940184      -2.27668898
H        3.25028540       3.38428173      -1.66439307
H        3.08694763       2.42663154      -0.19275572
H        3.85463105       3.93076750       1.26635618
H        2.39502182       4.20496122       2.21936979
H        3.04036412       6.57081012       2.62431085
H        4.47002443       6.37476398       1.56834137
H        0.84578910       6.24921462      -0.17473148
H        0.05648727       4.01756952      -1.66073889
C        4.52744725       5.37803784       3.34520033
C        5.16741675       4.97754071       4.28566675
Br       6.20219329       4.32997073       5.80632142
C       -1.82355118      -1.82355118      -1.82355118
C       -1.14536904      -2.12571690      -3.15175897
C       -1.00042981      -0.91702353      -4.08500585
H       -0.36390036      -0.14013223      -3.64639980
C       -0.43938463      -1.29563855      -5.47489820
H       -1.09707550      -2.03131010      -5.95373182
C        0.99694732      -1.81832198      -5.43358022
C        1.53087556      -2.09799096      -6.83017718
O       -0.47864610      -0.12206673      -6.29835519
O       -2.29013127      -0.32349139      -4.31127320
H       -2.78226803      -1.31198478      -1.93839792
H       -1.98325655      -2.74446310      -1.25485440
H       -1.75654830      -2.88333765      -3.65907425
H       -0.16507258      -2.57711356      -2.96414875
H        1.04595674      -2.73270426      -4.83229486
H        1.64384776      -1.07649679      -4.94796421
H        1.63454897      -1.19059070      -7.43082166
H        0.91559606      -2.82652364      -7.36551946
H       -1.37106740       0.25391500      -6.15258279
H       -2.45426477       0.29593601      -3.57646693
C        2.84759230      -2.67310404      -6.73477302
C        3.95034258      -3.15476124      -6.65487204
Br       5.73339651      -3.93356020      -6.52567891
C       -1.82355118       1.82355118       1.82355118
C       -2.61854314       2.81620861       0.98809317
C       -1.77481562       3.90862110       0.31902246
H       -1.06146442       3.48751303      -0.39854506
C       -2.63349194       4.97513819      -0.39870874
H       -3.31482020       5.44858784       0.31870939
C       -3.41841325       4.42787705      -1.59133542
C       -4.18043795       5.52928998      -2.31243534
O       -1.75301549       6.00808731      -0.86203478
O       -1.00591970       4.60378287       1.31519330
H       -1.17130906       2.30533206       2.55600961
H       -2.49522010       1.13824255       2.34911140
H       -3.33823800       3.29880688       1.66191532
H       -3.19889829       2.27312294       0.23431366
H       -4.11950341       3.65573871      -1.25619975
H       -2.72714111       3.95236776      -2.29889563
H       -3.51830091       6.25713780      -2.78857532
H       -4.87974716       6.04549250      -1.64879261
H       -1.16994006       6.19839432      -0.09859918
H       -0.18736401       4.09280738       1.45462430
C       -4.97400945       4.95321759      -3.36694228
C       -5.63862558       4.47075696      -4.25009184
Br      -6.71325365       3.69065893      -5.67806998
C        1.82355118      -1.82355118       1.82355118
C        0.98266467      -2.70115877       2.73902147
C        0.22617011      -1.94073912       3.83554996
H       -0.50452840      -1.24133741       3.41362337
C       -0.49756175      -2.88008028       4.82740285
H        0.22912652      -3.54999814       5.30299276
C       -1.62609508      -3.69119249       4.18985746
C       -2.35930823      -4.53588159       5.22071923
O       -1.04780480      -2.07093914       5.87593368
O        1.15276895      -1.16141512       4.61071179
H        2.50208368      -1.16244385       2.36812320
H        2.41043421      -2.43789782       1.13424203
H        1.66724455      -3.41175276       3.21996288
H        0.28222801      -3.28860383       2.13550306
H       -1.22394328      -4.33937161       3.40361404
H       -2.34332192      -3.01081165       3.71312352
H       -2.89833972      -3.93082746       5.95437565
H       -1.68735693      -5.22817308       5.73563089
H       -0.32199888      -1.46373526       6.12799882
H        1.27633807      -0.31426819       4.14418942
C       -3.34831213      -5.34805891       4.56053797
C       -4.17660289      -6.02825742       4.00763617
Br      -5.51587899      -7.12808088       3.11364072
C       -0.00445707       0.01189536      -1.78238275
H       -0.66409135       0.67374010      -2.43557963
H        0.65740317      -0.63156657      -2.45157240
C       -0.90989263      -0.90692880      -0.91072765
C        0.90977584       0.90977584      -0.90977584
C       -0.00465871       1.77757030       0.00794375
H       -0.66225468       2.44313916      -0.64384735
H        0.64322798       2.43503045       0.67728295
C       -1.78241447       0.00034974      -0.00472694
H       -2.45427497      -0.65498947       0.64260836
H       -2.43311707       0.67328779      -0.65473579
C       -0.91132561       0.90220522       0.91563759
C       -0.01476271      -0.02253852       1.78660255
H       -0.67934791      -0.69751639       2.42135241
H        0.63392994       0.61504881       2.47327442
C        0.01484550      -1.77751727      -0.01636693
H        0.67870853      -2.42144646      -0.68295456
H       -0.62264859      -2.45592969       0.64226336
C        1.78714474       0.01002794       0.00389507
H        2.44202412       0.67113390       0.66197326
H        2.45385902      -0.65136977      -0.64189061
C        0.91606151      -0.90478549       0.90901405
