109
Properties=species:S:1:pos:R:3 pbc="F F F"
C        0.00000000       0.00000000       0.00000000
C        0.91603176       0.91603176      -0.91603176
C        0.25165407       1.10771194      -2.26986804
C        1.12976020       1.93899404      -3.20658988
H        2.11293575       1.46505252      -3.30186818
C        0.52486925       2.07951029      -4.51024367
C        0.02631154       2.19531857      -5.58472565
C       -0.57483462       2.31130009      -6.98673081
C       -1.02469834       2.39887784      -8.09599204
C       -1.56220807       2.51559182      -9.45619262
H       -1.03780250       1.81549820     -10.11709191
C       -1.40689481       3.92854824     -10.01931223
C       -2.22669268       4.96361590      -9.26221900
O       -2.93773868       2.15432655      -9.45722851
O        1.33997436       3.22728283      -2.63674417
H        1.87876541       0.40454275      -0.99961535
H        1.04541255       1.85782680      -0.37633959
H       -0.71699495       1.60590586      -2.12607042
H        0.03966727       0.13212568      -2.72703518
H       -1.73657991       3.92315132     -11.06669438
H       -0.34640583       4.21251992     -10.02187511
H       -1.92653781       5.05350265      -8.21504760
H       -3.30123057       4.77240079      -9.32157848
H       -2.99371708       1.25780953      -9.08276875
H        0.51967273       3.73690347      -2.75843629
C       -2.01523460       6.26338450      -9.84487418
C       -1.83813846       7.35194070     -10.33284790
Br      -1.55178898       9.11204401     -11.12186014
C       -0.91603176      -0.91603176      -0.91603176
C       -1.44677904      -2.08317809      -0.09927693
C       -2.28992362      -3.02536126      -0.96005924
H       -1.69718082      -3.36681308      -1.81586256
C       -2.75288466      -4.16220635      -0.19953220
C       -3.13445498      -5.09920391       0.42730313
C       -3.59069822      -6.33603473       1.20353668
C       -3.94369644      -7.31988125       1.79340615
C       -4.38346864      -8.52742103       2.50131331
H       -3.74234948      -9.37038644       2.21794832
C       -5.83445232      -8.88814453       2.18163120
C       -6.82866922      -7.84768484       2.67721184
O       -4.24137535      -8.33578221       3.90334119
O       -3.40755960      -2.31376757      -1.48267418
H       -0.28779608      -1.24813998      -1.74698746
H       -1.71460999      -0.27180455      -1.29316439
H       -2.05215735      -1.69350234       0.73067836
H       -0.61305216      -2.63746698       0.35169101
H       -6.06771001      -9.84758963       2.66203385
H       -5.94990130      -9.03833170       1.10024380
H       -6.68204787      -6.87030416       2.21033959
H       -6.81664409      -7.74106967       3.76496505
H       -3.31117972      -8.09788355       4.06220208
H       -4.04928979      -2.20707633      -0.75864636
C       -8.16463743      -8.25468078       2.32629413
C       -9.28351080      -8.59553989       2.03240055
Br     -11.09263442      -9.14668024       1.55719949
C       -0.91603176       0.91603176       0.91603176
C       -0.17909251       1.24609061       2.20405093
C       -1.05003403       2.08172640       3.14358369
H       -1.98890811       1.55195122       3.33899713
C       -0.37200024       2.35340129       4.38922167
C        0.18684283       2.57731173       5.41588686
C        0.86935917       2.83125799       6.76129744
C        1.38401826       3.02631545       7.82787436
C        2.00038969       3.27384950       9.13611655
H        1.57135857       2.58910214       9.87704403
C        1.78322029       4.70970274       9.61448320
C        2.47629673       5.74053343       8.73490551
O        3.39505168       3.00495895       9.06390910
O       -1.38768883       3.30995197       2.50636055
H       -1.83268098       0.34940603       1.10083650
H       -1.14680067       1.80683358       0.32594469
H        0.74041569       1.79562519       1.95977183
H        0.13084408       0.32127536       2.70839686
H        2.18074446       4.79993743      10.63407282
H        0.70781875       4.92266825       9.67313970
H        2.10221843       5.73635431       7.70787656
H        3.56321725       5.62518524       8.73078071
H        3.48934582       2.08989907       8.74630794
H       -0.59915200       3.87981642       2.53604407
C        2.21251647       7.06140687       9.24413367
C        1.99160050       8.16763838       9.67061226
Br       1.63439807       9.95632117      10.36019207
C        0.91603176      -0.91603176       0.91603176
C        1.82945162      -1.75900553       0.04077690
C        2.69131744      -2.70098569       0.88304098
H        2.04487977      -3.32390349       1.51107320
C        3.52296226      -3.53951500       0.05214594
C        4.20840563      -4.23063869      -0.63268856
C        5.05853021      -5.16274845      -1.49808239
C        5.72029975      -5.91208280      -2.16221101
C        6.53588981      -6.83417396      -2.96048741
H        6.05673433      -7.82000830      -2.98195503
C        7.94909665      -6.99001023      -2.39814122
C        8.76119366      -5.70453874      -2.46659019
O        6.60913704      -6.36612161      -4.30144228
O        3.51153398      -1.93363216       1.75883521
H        0.23796867      -1.53087586       1.51407898
H        1.47142128      -0.23840561       1.56975204
H        2.47270087      -1.09330420      -0.55102374
H        1.23375240      -2.34041186      -0.67533613
H        8.47103024      -7.76165354      -2.97941799
H        7.89873570      -7.35224636      -1.36299286
H        8.32077486      -4.89715180      -1.87591422
H        8.92146906      -5.36408786      -3.49280822
H        5.69341410      -6.27003169      -4.61658460
H        4.23314864      -1.55607948       1.22578437
C       10.06876472      -5.93229223      -1.90803287
C       11.16385548      -6.12303578      -1.44024112
Br      12.93452462      -6.43145197      -0.68386142
