130
Properties=species:S:1:pos:R:3 pbc="F F F"
C        1.80286718       1.80286718      -1.80286718
H        2.73702418       1.34594110      -2.10922547
C        1.75586974       3.29837690      -1.56433469
H        1.11962817       3.70397117      -0.79037129
C        1.12774701       2.72187814      -2.78166564
H        0.05352262       2.71006628      -2.88808214
C        1.85767130       3.24818116      -3.97337918
N        3.10798219       3.77521861      -3.40785387
C        2.81821751       4.25324782      -2.03679584
H        2.35822576       5.24809117      -2.11917449
C        4.06945755       4.37704671      -1.13827705
H        4.75598331       5.08188566      -1.62783228
N        3.80575035       4.91434070       0.22356879
C        4.94661026       4.50974613       1.06898697
C        5.42342343       3.22906902       0.47067289
H        6.47555345       3.03715677       0.61894122
C        4.82906388       3.10538842      -0.88481630
H        5.44955780       2.80408243      -1.71748259
C        4.47589584       2.09625338       0.18938880
H        3.49415335       2.13273808       0.64424682
Br       5.21453722       0.34109646       0.03094343
H        2.05968811       2.46614461      -4.71031869
H        1.28369468       4.05238167      -4.44614664
H        3.46381355       4.53804268      -3.98036515
H        2.97244349       4.45436367       0.58836544
H        4.63964579       4.38856653       2.11211742
H        5.72995803       5.27336961       1.01863422
C       -1.80286718      -1.80286718      -1.80286718
H       -1.34227032      -2.11744015      -2.73248028
C       -3.29718835      -1.55525679      -1.76613619
H       -3.70193035      -0.77516231      -1.13687797
C       -2.73162096      -2.77221931      -1.12745051
H       -2.72676661      -2.87233755      -0.05256690
C       -3.26066691      -3.96511596      -1.85344877
N       -3.77697189      -3.40391373      -3.11016906
C       -4.24856830      -2.02837150      -2.83132136
H       -5.24657410      -2.10216299      -2.37675433
C       -4.35967053      -1.13656778      -4.08854299
H       -5.06334192      -1.62602204      -4.77633730
N       -4.89043078       0.22995722      -3.83604871
C       -4.47412266       1.06620416      -4.97945092
C       -3.19422670       0.45754360      -5.44513646
H       -2.99524623       0.59844327      -6.49696604
C       -3.08208133      -0.89510550      -4.84208178
H       -2.78206449      -1.73319331      -5.45586501
C       -2.06869747       0.17521114      -4.48927408
H       -2.10826811       0.63608438      -3.51046088
Br      -0.31019027       0.00205831      -5.21655830
H       -2.48183378      -4.70783238      -2.04648525
H       -4.07102064      -4.42973013      -1.28147221
H       -4.54106545      -3.97402047      -3.46713547
H       -4.43321636       0.59696895      -3.00219431
H       -4.34857525       2.11040310      -4.67792275
H       -5.23340428       1.01570967      -5.76699880
C       -1.80286718       1.80286718       1.80286718
H       -2.19973002       2.68289162       1.30956910
C       -1.46777204       1.87193509       3.27887419
H       -0.62862428       1.31461357       3.67073278
C       -2.67395699       1.13078534       2.82654846
H       -2.70825581       0.05363741       2.88977782
C       -3.87655195       1.81783087       3.38484882
N       -3.36444850       3.13402613       3.79258004
C       -1.94953939       2.96427892       4.19444286
H       -1.93775381       2.56811020       5.21962742
C       -1.13138536       4.27524135       4.17815460
H       -1.62062624       4.97543662       4.86963840
N        0.27633599       4.13485344       4.63800482
C        1.01569816       5.29693853       4.10612905
C        0.30694987       5.64761669       2.84115274
H        0.37154949       6.69167475       2.57364374
C       -1.01049147       4.96188607       2.84689106
H       -1.90044586       5.50685083       2.56382613
C        0.01921978       4.61002262       1.79195758
H        0.54061203       3.66365106       1.85960558
Br      -0.29914307       5.21719718       0.00835000
H       -4.67333039       1.91974650       2.64307451
H       -4.25783919       1.27066811       4.25371568
H       -3.91033959       3.50361164       4.56827015
H        0.66670389       3.29713317       4.20801244
H        2.06741139       5.04897243       3.93453387
H        0.96096759       6.12523204       4.82042896
C        1.80286718      -1.80286718       1.80286718
H        1.45052901      -2.82137412       1.92028761
C        2.52973094      -1.13595826       2.95289213
H        2.41002482      -0.07606294       3.12788287
C        3.28911677      -1.58522386       1.75695015
H        3.71297455      -0.86236621       1.07633029
C        4.23783297      -2.65582357       2.18557510
N        3.72413110      -3.06678021       3.50014336
C        3.09462356      -1.88378928       4.12984833
H        3.89611886      -1.26786270       4.56150985
C        2.09666239      -2.23033200       5.25778692
H        2.64922229      -2.79404500       6.02243396
N        1.50051817      -1.05250907       5.94349503
C        0.26450103      -1.52282828       6.60004012
C       -0.21152327      -2.64859238       5.74475045
H       -0.77970686      -3.39726030       6.27621555
C        0.90687876      -3.05597008       4.85641976
H        1.13675805      -4.10486391       4.72950086
C       -0.36542339      -2.49055828       4.25762553
H       -0.35596885      -1.48701601       3.85159745
Br      -1.53217482      -3.70374755       3.35311752
H        4.24962630      -3.49806265       1.48846246
H        5.25073397      -2.25016350       2.28132551
H        4.48062174      -3.41750367       4.08409598
H        1.23307067      -0.37447690       5.23089416
H       -0.47357154      -0.71834081       6.67132563
H        0.49720747      -1.87799248       7.60949346
C       -0.00445707       0.01189536      -1.78238275
H       -0.66409135       0.67374010      -2.43557963
H        0.65740317      -0.63156657      -2.45157240
C       -0.90989263      -0.90692880      -0.91072765
C        0.90977584       0.90977584      -0.90977584
C       -0.00465871       1.77757030       0.00794375
H       -0.66225468       2.44313916      -0.64384735
H        0.64322798       2.43503045       0.67728295
C       -1.78241447       0.00034974      -0.00472694
H       -2.45427497      -0.65498947       0.64260836
H       -2.43311707       0.67328779      -0.65473579
C       -0.91132561       0.90220522       0.91563759
C       -0.01476271      -0.02253852       1.78660255
H       -0.67934791      -0.69751639       2.42135241
H        0.63392994       0.61504881       2.47327442
C        0.01484550      -1.77751727      -0.01636693
H        0.67870853      -2.42144646      -0.68295456
H       -0.62264859      -2.45592969       0.64226336
C        1.78714474       0.01002794       0.00389507
H        2.44202412       0.67113390       0.66197326
H        2.45385902      -0.65136977      -0.64189061
C        0.91606151      -0.90478549       0.90901405
