146
Properties=species:S:1:pos:R:3 pbc="F F F"
C        1.83515571       1.83515571      -1.83515571
C        2.82431918       0.96413546      -2.59935163
C        2.21625538       0.22056783      -3.78857662
C        1.26830193       1.03929453      -4.67772232
C        0.31100402       1.93795844      -3.88343251
C        0.95932087       2.70274570      -2.73093596
N        1.94171582       1.75327608      -5.77022402
C        1.55527294       1.59583093      -7.08082371
O        0.68858520       0.88599342      -7.55387274
C        2.38699215       2.48616664      -7.88340349
C        2.41680368       2.70019209      -9.24778605
C        3.33400820       3.64205102      -9.72688445
C        4.18083579       4.33425859      -8.83656218
Br       5.40610115       5.60182097      -9.52195676
C        4.13113490       4.10447602      -7.45989499
C        3.21758672       3.16718636      -7.01712612
C        2.91135977       2.71314845      -5.66323611
O        3.45633262       3.18222961      -4.68374568
H        2.37133492       2.46431879      -1.11653628
H        3.29408454       0.23348370      -1.92826177
H        3.64729718       1.59167758      -2.95262669
H        3.01964894      -0.21959258      -4.39216170
H        1.64526369      -0.62835855      -3.38911579
H        0.62902706       0.29871319      -5.17801106
H       -0.19092939       2.64738783      -4.55306963
H       -0.48414453       1.30467140      -3.46911505
H        1.56611620       3.51685054      -3.14015394
H        0.17278485       3.19227177      -2.14275529
H        1.75373953       2.15982247      -9.91626984
H        3.38671734       3.83785818     -10.79649310
H        4.77210952       4.63105960      -6.76041711
C       -1.83515571      -1.83515571      -1.83515571
C       -0.97683847      -2.89185081      -2.51911698
C       -0.56549068      -4.04993108      -1.60997807
C       -1.66869788      -4.61433032      -0.70229058
C       -2.54346307      -3.52998230      -0.05894961
C       -2.97593713      -2.41165869      -1.00540672
N       -2.45805871      -5.68847492      -1.31868228
C       -2.60398055      -6.91478889      -0.71315814
O       -2.13432942      -7.32497779       0.33085584
C       -3.48729833      -7.70919942      -1.56006454
C       -3.93977519      -9.00666422      -1.41834240
C       -4.80089464      -9.49464220      -2.40740684
C       -5.18025803      -8.67833039      -3.49306815
Br      -6.34798189      -9.37283512      -4.80906187
C       -4.71329365      -7.36772571      -3.61448655
C       -3.86268531      -6.91499200      -2.62422189
C       -3.22155114      -5.61412560      -2.45206759
O       -3.41436161      -4.69039067      -3.21755564
H       -2.23242239      -1.13852937      -2.58123823
H       -0.07250898      -2.43831214      -2.94500890
H       -1.52423451      -3.28875691      -3.37861003
H       -0.12479598      -4.85048429      -2.21693781
H        0.24406521      -3.68824052      -0.96184562
H       -1.13920427      -5.09723814       0.13069109
H       -3.43186425      -3.97949711       0.40183328
H       -1.97505935      -3.07976586       0.76518329
H       -3.74795618      -2.79471790      -1.68044660
H       -3.46479191      -1.62155397      -0.42146603
H       -3.63908392      -9.61777596      -0.57297197
H       -5.17831495     -10.51284151      -2.32991217
H       -4.99833219      -6.72460080      -4.44065324
C       -1.83515571       1.83515571       1.83515571
C       -1.66147302       3.29412294       1.43221031
C       -2.39546230       3.68150500       0.14843254
C       -3.82901054       3.14776338       0.00854486
C       -3.98357976       1.68916095       0.45965427
C       -3.27698340       1.34619094       1.76982819
N       -4.85360737       4.03044211       0.58116643
C       -5.92353791       4.47089534      -0.16250567
O       -6.19390566       4.26458234      -1.33003663
C       -6.76340002       5.26860994       0.72455232
C       -7.94070569       5.94739363       0.47668249
C       -8.52633298       6.62460110       1.55200961
C       -7.92465520       6.59972432       2.82727704
Br      -8.74763873       7.52547216       4.25676798
C       -6.73563259       5.90377317       3.05610014
C       -6.17984842       5.24724932       1.97480147
C       -4.97112150       4.43258032       1.88404251
O       -4.27662748       4.19364015       2.85204028
H       -1.43350610       1.67686540       2.84181850
H       -0.59756054       3.53936699       1.31890249
H       -2.01137280       3.93005033       2.25017832
H       -2.38260672       4.77277839       0.03683295
H       -1.81210679       3.28943124      -0.69551710
H       -4.03250201       3.14452045      -1.07127114
H       -5.04528799       1.42456155       0.53967854
H       -3.57380292       1.04459359      -0.32875459
H       -3.83822226       1.78262776       2.60227066
H       -3.32278223       0.26071114       1.92431854
H       -8.39015309       5.95117979      -0.51150103
H       -9.45484362       7.17094039       1.39528462
H       -6.26149148       5.87054889       4.03154587
C        1.83515571      -1.83515571       1.83515571
C        3.20481748      -1.99547521       1.18751357
C        4.11455918      -0.77584072       1.33499993
C        4.13902636      -0.12168942       2.72460299
C        2.75160831      -0.01002924       3.37075742
C        1.88500834      -1.26180764       3.24618655
N        5.14442738      -0.68730522       3.63348332
C        6.08265364       0.10443418       4.25370812
O        6.26900450       1.30262827       4.16207514
C        6.87261822      -0.76441301       5.11953105
C        7.94290815      -0.47748631       5.94438736
C        8.49267878      -1.53972704       6.67053786
C        7.95928157      -2.83991441       6.55246057
Br       8.72814301      -4.24965275       7.55208313
C        6.87409437      -3.10663368       5.71477785
C        6.35454643      -2.03855992       5.00879285
C        5.23249699      -1.97943511       4.07581222
O        4.54805873      -2.95110287       3.82314631
H        1.31215314      -2.79752906       1.84250780
H        3.10209249      -2.23296607       0.12077145
H        3.70128973      -2.86693687       1.62337484
H        5.13172150      -1.04016041       1.02033616
H        3.76896167      -0.01866416       0.61839510
H        4.46678729       0.91277272       2.55173675
H        2.84407397       0.26368497       4.42913908
H        2.22015336       0.82278772       2.89227628
H        2.26647378      -2.02863932       3.92800758
H        0.87363016      -1.03046661       3.60371514
H        8.33653504       0.53106968       6.02436649
H        9.33736786      -1.35241022       7.33129055
H        6.44853861      -4.09981131       5.61523631
C       -0.00445707       0.01189536      -1.78238275
H       -0.66409135       0.67374010      -2.43557963
H        0.65740317      -0.63156657      -2.45157240
C       -0.90989263      -0.90692880      -0.91072765
C        0.90977584       0.90977584      -0.90977584
C       -0.00465871       1.77757030       0.00794375
H       -0.66225468       2.44313916      -0.64384735
H        0.64322798       2.43503045       0.67728295
C       -1.78241447       0.00034974      -0.00472694
H       -2.45427497      -0.65498947       0.64260836
H       -2.43311707       0.67328779      -0.65473579
C       -0.91132561       0.90220522       0.91563759
C       -0.01476271      -0.02253852       1.78660255
H       -0.67934791      -0.69751639       2.42135241
H        0.63392994       0.61504881       2.47327442
C        0.01484550      -1.77751727      -0.01636693
H        0.67870853      -2.42144646      -0.68295456
H       -0.62264859      -2.45592969       0.64226336
C        1.78714474       0.01002794       0.00389507
H        2.44202412       0.67113390       0.66197326
H        2.45385902      -0.65136977      -0.64189061
C        0.91606151      -0.90478549       0.90901405
