154
Properties=species:S:1:pos:R:3 pbc="F F F"
C        1.83515571       1.83515571      -1.83515571
C        2.82431918       0.96413546      -2.59935163
C        2.21625538       0.22056783      -3.78857662
C        1.26830193       1.03929453      -4.67772232
C        0.31100402       1.93795844      -3.88343251
C        0.95932087       2.70274570      -2.73093596
N        1.94171582       1.75327608      -5.77022402
C        1.55527294       1.59583093      -7.08082371
O        0.68858520       0.88599342      -7.55387274
C        2.38699215       2.48616664      -7.88340349
C        2.41680368       2.70019209      -9.24778605
C        3.33400820       3.64205102      -9.72688445
C        4.18083579       4.33425859      -8.83656218
C        4.13113490       4.10447602      -7.45989499
C        3.21758672       3.16718636      -7.01712612
C        2.91135977       2.71314845      -5.66323611
O        3.45633262       3.18222961      -4.68374568
H        2.37133492       2.46431879      -1.11653628
H        3.29408454       0.23348370      -1.92826177
H        3.64729718       1.59167758      -2.95262669
H        3.01964894      -0.21959258      -4.39216170
H        1.64526369      -0.62835855      -3.38911579
H        0.62902706       0.29871319      -5.17801106
H       -0.19092939       2.64738783      -4.55306963
H       -0.48414453       1.30467140      -3.46911505
H        1.56611620       3.51685054      -3.14015394
H        0.17278485       3.19227177      -2.14275529
H        1.75373953       2.15982247      -9.91626984
H        3.38671734       3.83785818     -10.79649310
H        4.77210952       4.63105960      -6.76041711
C        5.11363320       5.29925682      -9.35835469
C        5.89485103       6.10744283      -9.79535591
Br       7.15801418       7.41421126     -10.50194993
C       -1.83515571      -1.83515571      -1.83515571
C       -0.97128052      -2.86669814      -2.54982760
C       -0.52675641      -4.03232850      -1.66631492
C       -1.60590814      -4.62901430      -0.75039634
C       -2.48732899      -3.56944397      -0.07562201
C       -2.95294459      -2.44330659      -0.99675136
N       -2.38790630      -5.70585004      -1.37145957
C       -2.50434879      -6.94389612      -0.78368268
O       -2.01130125      -7.36303834       0.24588822
C       -3.38849631      -7.73891182      -1.62915415
C       -3.81781167      -9.04565610      -1.50131404
C       -4.68697483      -9.53168566      -2.48428319
C       -5.09692704      -8.70439343      -3.55033609
C       -4.65300814      -7.38460190      -3.65789587
C       -3.79377044      -6.93399741      -2.67413136
C       -3.17080192      -5.62580518      -2.49113722
O       -3.39076543      -4.69320536      -3.23833712
H       -2.25557646      -1.13323730      -2.56337625
H       -0.08135535      -2.39177717      -2.98269749
H       -1.52615264      -3.25865409      -3.40679471
H       -0.08323904      -4.81581123      -2.29316779
H        0.28733666      -3.66794104      -1.02541654
H       -1.05529960      -5.11651074       0.06605902
H       -3.36082747      -4.04064114       0.39194053
H       -1.91288133      -3.12328497       0.74652438
H       -3.72960611      -2.82801718      -1.66549740
H       -3.44481646      -1.67068406      -0.39231140
H       -3.49369527      -9.66523833      -0.67089824
H       -5.04676096     -10.55699088      -2.41731679
H       -4.96167565      -6.73306752      -4.46884305
C       -5.99351102      -9.23141062      -4.54632306
C       -6.74440011      -9.67278751      -5.38046215
Br      -7.95852425     -10.38645662      -6.72919451
C       -1.83515571       1.83515571       1.83515571
C       -1.53956243       3.30161216       1.54663166
C       -2.15592451       3.82155406       0.24792126
C       -3.60791514       3.39886697      -0.02146333
C       -3.88780269       1.92831955       0.31627273
C       -3.29765945       1.45277734       1.64256574
N       -4.61033662       4.31152992       0.54334938
C       -5.59518207       4.87257007      -0.23582455
O       -5.79663702       4.76176191      -1.42994756
C       -6.44105795       5.66741167       0.64809266
C       -7.55175231       6.44097315       0.37205634
C       -8.16544267       7.08597536       1.45152565
C       -7.65666862       6.93663813       2.75834981
C       -6.53410212       6.14640972       3.01499407
C       -5.94836226       5.52445764       1.92907931
C       -4.79169355       4.63542737       1.86062341
O       -4.18308121       4.28649783       2.85272887
H       -1.51551104       1.58433795       2.85234101
H       -0.45667856       3.47921549       1.51993596
H       -1.90339983       3.90585795       2.38234366
H       -2.06453321       4.91423726       0.21344760
H       -1.54205376       3.44553135      -0.58156417
H       -3.73570529       3.47987051      -1.10982448
H       -4.96743735       1.73345618       0.30863455
H       -3.46697310       1.30939571      -0.48672689
H       -3.88583460       1.87217329       2.46511279
H       -3.42444734       0.36536493       1.71799964
H       -7.93029179       6.54010628      -0.64056622
H       -9.04339661       7.70449717       1.27317485
H       -6.13200723       6.01708379       4.01449521
C       -8.31019532       7.61108273       3.84996666
C       -8.85752392       8.17593008       4.76419577
Br      -9.74250799       9.08924047       6.24242692
C        1.83515571      -1.83515571       1.83515571
C        3.23280454      -1.92022652       1.23477520
C        4.08933062      -0.67450561       1.46156360
C        4.03775884      -0.07337686       2.87418308
C        2.62428931      -0.03749270       3.47061297
C        1.81122858      -1.31460146       3.26717250
N        5.02993131      -0.63592823       3.79935638
C        5.91385493       0.16551296       4.48358562
O        6.05760825       1.37236719       4.44321031
C        6.70404131      -0.70611699       5.34640398
C        7.73158021      -0.41173335       6.22146825
C        8.29441780      -1.47998256       6.92854331
C        7.81570013      -2.79343833       6.74251810
C        6.77298534      -3.06770097       5.85481960
C        6.23936466      -1.99328572       5.16924883
C        5.15091192      -1.93988091       4.19695149
O        4.51377919      -2.92569366       3.88283505
H        1.34932466      -2.81567386       1.78719148
H        3.17847393      -2.12046955       0.15688653
H        3.74580679      -2.78885007       1.65694459
H        5.12670805      -0.88908209       1.17642792
H        3.74166495       0.09624466       0.76060065
H        4.33195347       0.97826902       2.75206686
H        2.66730048       0.19886483       4.54109242
H        2.07939331       0.79288079       3.00312940
H        2.19635807      -2.09234877       3.93441385
H        0.77931023      -1.13437984       3.59412185
H        8.08324708       0.60681835       6.35340312
H        9.10650095      -1.28709811       7.62746957
H        6.38956654      -4.07132278       5.70269691
C        8.41319174      -3.87269166       7.48536130
C        8.91359096      -4.77656633       8.10749248
Br       9.72269418      -6.23805522       9.11342598
C       -0.00445707       0.01189536      -1.78238275
H       -0.66409135       0.67374010      -2.43557963
H        0.65740317      -0.63156657      -2.45157240
C       -0.90989263      -0.90692880      -0.91072765
C        0.90977584       0.90977584      -0.90977584
C       -0.00465871       1.77757030       0.00794375
H       -0.66225468       2.44313916      -0.64384735
H        0.64322798       2.43503045       0.67728295
C       -1.78241447       0.00034974      -0.00472694
H       -2.45427497      -0.65498947       0.64260836
H       -2.43311707       0.67328779      -0.65473579
C       -0.91132561       0.90220522       0.91563759
C       -0.01476271      -0.02253852       1.78660255
H       -0.67934791      -0.69751639       2.42135241
H        0.63392994       0.61504881       2.47327442
C        0.01484550      -1.77751727      -0.01636693
H        0.67870853      -2.42144646      -0.68295456
H       -0.62264859      -2.45592969       0.64226336
C        1.78714474       0.01002794       0.00389507
H        2.44202412       0.67113390       0.66197326
H        2.45385902      -0.65136977      -0.64189061
C        0.91606151      -0.90478549       0.90901405
