105
Properties=species:S:1:pos:R:3 pbc="F F F"
C        0.00000000       0.00000000       0.00000000
C        0.87038561       0.87038561      -0.87038561
S        2.46521739       0.46592584      -1.28562553
C        2.58349724       1.90112066      -2.18669976
N        1.50521068       2.66243758      -2.19324820
C        0.50250302       2.07414327      -1.43137150
C       -0.80112679       2.77792553      -1.31564451
N        3.75429163       2.26684541      -2.88846947
C        3.81342857       3.45114886      -3.61521386
C        5.04140666       3.58546345      -4.20414946
C        5.81045640       2.45015953      -3.85020007
C        7.12985390       2.04065945      -4.15509986
C        7.63381869       0.84069854      -3.65326608
C        6.83712216       0.04127702      -2.84896338
C        5.52790217       0.41895390      -2.52931726
C        5.00457518       1.63252133      -3.03113297
H       -1.05656143       2.95094742      -0.26594665
H       -1.59732257       2.18831493      -1.77991069
H       -0.76485395       3.75064218      -1.81682567
H        2.95070876       4.10510568      -3.64524363
H        5.35173204       4.41596011      -4.82539824
H        8.64743399       0.52601155      -3.88758718
H        7.23362279      -0.89428823      -2.45932499
H        4.95438506      -0.24749079      -1.89661797
C        7.97939282       2.85159882      -4.98832309
C        8.69088166       3.53076055      -5.68614755
Br       9.84129895       4.62890762      -6.81447068
C       -0.87038561      -0.87038561      -0.87038561
S       -0.87508390      -0.77696996      -2.56471490
C       -2.03946372      -2.01267307      -2.61918088
N       -2.42442447      -2.48728842      -1.44918357
C       -1.75214641      -1.83111031      -0.42476108
C       -2.04431706      -2.22585164       0.97772545
N       -2.56860433      -2.50918908      -3.83181308
C       -3.52179648      -3.52192592      -3.83606890
C       -3.87853099      -3.83216611      -5.12032247
C       -3.13282573      -2.99367340      -5.98431687
C       -3.07589652      -2.85831063      -7.39140605
C       -2.22475322      -1.92300176      -7.98002834
C       -1.42723853      -1.11843734      -7.18168669
C       -1.46097225      -1.22837835      -5.78682273
C       -2.31899918      -2.17206474      -5.17716556
H       -2.36515785      -1.36049410       1.56531931
H       -1.15634044      -2.66075876       1.44619615
H       -2.84509161      -2.97158337       1.01406108
H       -3.86583480      -3.93797625      -2.89724702
H       -4.60166968      -4.58546656      -5.40595415
H       -2.18091326      -1.81906164      -9.06105783
H       -0.76433063      -0.38991291      -7.64441601
H       -0.81452474      -0.57234991      -5.21663759
C       -3.89328277      -3.68124879      -8.24478316
C       -4.57784375      -4.37045951      -8.95948650
Br      -5.68472096      -5.48485493     -10.11510135
C       -0.87038561       0.87038561       0.87038561
S       -0.27063918       1.76330090       2.18282868
C       -1.83599118       2.34940312       2.48592337
N       -2.77685506       1.91646006       1.66758133
C       -2.22807573       1.05578061       0.72416145
C       -3.12886121       0.46023709      -0.29665504
N       -2.12464461       3.24318102       3.54178087
C       -3.41983671       3.70088369       3.75907089
C       -3.44895737       4.55076450       4.83129770
C       -2.12779199       4.65177464       5.33124937
C       -1.55087544       5.36942916       6.40530860
C       -0.18435425       5.27472833       6.66870073
C        0.61690702       4.47141920       5.87285039
C        0.07595379       3.74906144       4.80306568
C       -1.30736603       3.83587338       4.52499007
H       -3.06905690      -0.63204198      -0.27668227
H       -2.85811535       0.81013300      -1.29734530
H       -4.17006787       0.74268276      -0.11013673
H       -4.22138922       3.36866530       3.11100354
H       -4.33131781       5.04750322       5.21426936
H        0.25892148       5.82615865       7.49379557
H        1.68264174       4.40005328       6.08124802
H        0.75261776       3.13881325       4.21731675
C       -2.35973870       6.21150592       7.24807011
C       -3.03716168       6.91674521       7.95388287
Br      -4.13249734       8.05705749       9.09512241
C        0.87038561      -0.87038561       0.87038561
S        0.42634833      -2.43456179       1.35585863
C        1.89195307      -2.57639628       2.20296831
N        2.68928269      -1.52600413       2.14560963
C        2.10644559      -0.52752347       1.37404873
C        2.85259659       0.74328874       1.18313540
N        2.24620271      -3.73830239       2.92510140
C        3.45558495      -3.81686463       3.60734171
C        3.57290131      -5.03167639       4.22644187
C        2.40033188      -5.77186135       3.93862277
C        1.96076241      -7.06796797       4.29688282
C        0.72671675      -7.54553169       3.85553487
C       -0.07724154      -6.74532111       3.05928300
C        0.32956625      -5.45866509       2.68794198
C        1.57779070      -4.96218241       3.12825637
H        2.25159922       1.59825632       1.50698974
H        3.11797327       0.87723611       0.13016589
H        3.77838569       0.74336463       1.76759284
H        4.13799830      -2.97618643       3.58687333
H        4.41669929      -5.35230458       4.82408652
H        0.38903126      -8.54133302       4.13066845
H       -1.03933568      -7.12127323       2.71672200
H       -0.34197224      -4.88120246       2.06428202
C        2.77576415      -7.92065348       5.12289711
C        3.45832810      -8.63477759       5.81468407
Br       4.56197628      -9.78945587       6.93324509
