162
Properties=species:S:1:pos:R:3 pbc="F F F"
C        1.79158059       1.79158059      -1.79158059
C        1.54279366       3.15438866      -1.87055524
C        2.35371202       3.94852032      -2.68033566
C        3.41629362       3.38195112      -3.42706587
C        3.66345902       1.99694200      -3.31680465
C        2.84476852       1.22505423      -2.50551827
N        4.66446581       1.38733892      -3.96555559
C        5.46970084       2.13826382      -4.75721675
C        5.34031552       3.50665316      -4.96262203
C        4.27593337       4.11405044      -4.28135358
O        4.07838834       5.46090907      -4.48556347
C        6.26446074       4.23743649      -5.84696357
C        6.94260769       5.36710585      -5.40576198
N        7.80638502       6.10101662      -6.15001814
C        8.04161874       5.71774661      -7.41191486
C        7.42769516       4.58723929      -7.99163053
C        6.52096282       3.86902173      -7.17483739
O        5.84077769       2.78080627      -7.67379253
C        7.75861849       4.23672286      -9.32380234
C        8.65314411       5.00655802     -10.06679277
C        9.23112909       6.12513516      -9.48361174
C        8.92851283       6.46958488      -8.16808464
H        0.73162720       3.60722972      -1.30600518
H        2.15711754       5.01728557      -2.70497836
H        3.04347162       0.15802145      -2.43377577
H        6.26053935       1.57334355      -5.24534084
H        3.12501033       5.64105709      -4.45683682
H        6.80746444       5.73849770      -4.39145604
H        5.65599369       2.93689412      -8.61447373
H        7.34009858       3.35010528      -9.79233359
H        8.89401968       4.72233859     -11.08808665
H        9.39089345       7.34143618      -7.71075870
C       10.15483472       6.92946499     -10.24085770
C       10.92843818       7.60309122     -10.87505119
Br      12.17928954       8.69228787     -11.90048843
C       -1.79158059      -1.79158059      -1.79158059
C       -1.26941223      -2.95067878      -2.34764654
C       -2.08388856      -3.74640176      -3.15227769
C       -3.42766119      -3.38215286      -3.41549656
C       -3.94374676      -2.20939443      -2.82406447
C       -3.11645699      -1.43208358      -2.02680046
N       -5.21026062      -1.80913324      -2.99796647
C       -6.02391937      -2.56751248      -3.77374957
C       -5.64987888      -3.73954451      -4.42016731
C       -4.31536132      -4.12557468      -4.23040139
O       -3.88319123      -5.25678265      -4.88488701
C       -6.60667559      -4.49488079      -5.24730442
C       -6.83021763      -5.84981243      -5.03544546
N       -7.68696515      -6.62184323      -5.74861140
C       -8.38680118      -6.04810721      -6.73637181
C       -8.26583516      -4.68015926      -7.06057056
C       -7.34322864      -3.92608462      -6.29550868
O       -7.12617118      -2.59523332      -6.57397199
C       -9.06809980      -4.15007271      -8.10097118
C       -9.94439737      -4.96508177      -8.81701576
C      -10.03396319      -6.31163325      -8.49427955
C       -9.26437859      -6.84108700      -7.46071676
H       -0.24056436      -3.24618283      -2.15811492
H       -1.66137655      -4.66363928      -3.55436564
H       -3.52580725      -0.52807914      -1.58138245
H       -7.03631897      -2.18025392      -3.86265084
H       -2.95416437      -5.13184512      -5.13689473
H       -6.30260809      -6.38613152      -4.24867857
H       -7.21318724      -2.46203890      -7.53213540
H       -9.03554810      -3.09365270      -8.35333665
H      -10.55124735      -4.54041937      -9.61277819
H       -9.34426563      -7.89498415      -7.20383857
C      -10.93354390      -7.16419618      -9.22741733
C      -11.68694274      -7.87821764      -9.84142021
Br     -12.90512494      -9.03272995     -10.83421094
C       -1.79158059       1.79158059       1.79158059
C       -3.01998027       1.31792620       2.22983109
C       -3.81662381       2.13304696       3.03289723
C       -3.39348930       3.43559717       3.39622414
C       -2.13215836       3.88967825       2.95536905
C       -1.35533431       3.06272925       2.15727746
N       -1.64481845       5.09523333       3.27730855
C       -2.39903774       5.90597994       4.06016373
C       -3.65725280       5.59227121       4.56006671
C       -4.14628202       4.32985733       4.19519803
O       -5.40715637       3.98845918       4.62924533
C       -4.40392903       6.54300552       5.40192624
C       -4.90429304       6.16831416       6.64286832
N       -5.60355185       6.97411821       7.47974972
C       -5.83482684       8.23749592       7.09895744
C       -5.38180499       8.75701678       5.86774320
C       -4.67307102       7.86615064       5.02560029
O       -4.23542044       8.27437138       3.78558466
C       -5.64492029      10.11455620       5.55966720
C       -6.36351905      10.92336248       6.43961337
C       -6.81608607      10.38710146       7.63668846
C       -6.54748887       9.05884751       7.95984597
H       -3.36229545       0.32184810       1.96071856
H       -4.76221856       1.73038620       3.38677670
H       -0.38750294       3.42739798       1.82036792
H       -1.93400745       6.86393605       4.28128023
H       -5.83183694       3.44418819       3.94687910
H       -4.75365437       5.15980520       7.02395861
H       -4.87899272       8.90515692       3.42321191
H       -5.27716228      10.56409695       4.64127821
H       -6.55648631      11.96257930       6.18537931
H       -6.89524278       8.64440448       8.90344108
C       -7.56091781      11.21126578       8.55297382
C       -8.18471439      11.90150339       9.32036281
Br      -9.19334069      13.01755924      10.56116591
C        1.79158059      -1.79158059       1.79158059
C        3.07333800      -1.37401324       2.12038631
C        3.86925959      -2.18865895       2.92464947
C        3.39105593      -3.43525353       3.39900115
C        2.07754605      -3.83130943       3.06835018
C        1.30242594      -3.00588788       2.26702721
N        1.53868385      -4.97962750       3.49904898
C        2.29128960      -5.78836274       4.28552907
C        3.59689084      -5.52822705       4.68447282
C        4.13812302      -4.32606226       4.20715210
O        5.44373095      -4.04261652       4.53851341
C        4.33720004      -6.47220901       5.53945175
C        4.94093567      -6.05514808       6.71939177
N        5.64269224      -6.85196731       7.56276022
C        5.76935435      -8.14908703       7.25283883
C        5.20441716      -8.71291045       6.08923737
C        4.49815761      -7.83107956       5.23558477
O        3.95485602      -8.28562669       4.05489377
C        5.36175679     -10.10139660       5.85599030
C        6.08543872     -10.89981245       6.74124373
C        6.64870171     -10.32140756       7.86976672
C        6.48508316      -8.96078656       8.12031262
H        3.45826595      -0.42142405       1.76517210
H        4.85938477      -1.82830388       3.19169281
H        0.29363858      -3.32588164       2.01574863
H        1.78334195      -6.69784141       4.59804037
H        5.85526678      -3.57108202       3.79655542
H        4.87877201      -5.01716597       7.04148020
H        4.53261037      -8.97892380       3.69582736
H        4.90679118     -10.58175162       4.99399464
H        6.19624977     -11.96330210       6.54489304
H        6.91961714      -8.51249469       9.01097651
C        7.39996106     -11.13459885       8.79059749
C        8.02914076     -11.81564656       9.56179327
Br       9.04647113     -12.91684311      10.80875160
C       -0.00445707       0.01189536      -1.78238275
H       -0.66409135       0.67374010      -2.43557963
H        0.65740317      -0.63156657      -2.45157240
C       -0.90989263      -0.90692880      -0.91072765
C        0.90977584       0.90977584      -0.90977584
C       -0.00465871       1.77757030       0.00794375
H       -0.66225468       2.44313916      -0.64384735
H        0.64322798       2.43503045       0.67728295
C       -1.78241447       0.00034974      -0.00472694
H       -2.45427497      -0.65498947       0.64260836
H       -2.43311707       0.67328779      -0.65473579
C       -0.91132561       0.90220522       0.91563759
C       -0.01476271      -0.02253852       1.78660255
H       -0.67934791      -0.69751639       2.42135241
H        0.63392994       0.61504881       2.47327442
C        0.01484550      -1.77751727      -0.01636693
H        0.67870853      -2.42144646      -0.68295456
H       -0.62264859      -2.45592969       0.64226336
C        1.78714474       0.01002794       0.00389507
H        2.44202412       0.67113390       0.66197326
H        2.45385902      -0.65136977      -0.64189061
C        0.91606151      -0.90478549       0.90901405
