170
Properties=species:S:1:pos:R:3 pbc="F F F"
C        1.79187507       1.79187507      -1.79187507
C        1.45649030       3.12580301      -1.98233577
C        2.26703779       3.91929490      -2.78966446
C        3.41488493       3.38186498      -3.41076320
C        3.74590433       2.02449898      -3.20955355
C        2.92537679       1.25160088      -2.39999514
N        4.82467315       1.45445339      -3.77490299
C        5.61190446       2.22017421      -4.56800412
C        5.38130505       3.55868798      -4.83515439
C        4.26349834       4.14137424      -4.23939764
O        3.94753166       5.46604277      -4.43824512
C        6.25914147       4.28601093      -5.69777339
C        6.96357917       4.92857296      -6.42848236
C        7.83264447       5.76375275      -7.36804311
C        8.51993852       6.39666377      -8.12454035
C        9.35397185       7.10302710      -9.04471425
C        9.10651734       8.43367771      -9.33541575
N        9.83725491       9.17324570     -10.20338073
C       10.86999480       8.58189429     -10.82916913
C       11.21519569       7.23105418     -10.60864075
C       10.43054586       6.50120992      -9.69479482
O       10.76290725       5.18416861      -9.47358425
C       12.31055495       6.66952957     -11.29931981
C       13.05319777       7.43212679     -12.19681972
C       12.70398355       8.75976746     -12.40576153
C       11.62414459       9.32455142     -11.72658263
Br      13.70034879       9.80850628     -13.62291143
H        0.57559816       3.55636359      -1.51418255
H        2.00432294       4.96489041      -2.94041091
H        3.18184694       0.20626201      -2.24680490
H        6.46269398       1.69537714      -4.99638537
H        4.61464271       5.88090325      -5.01018859
H        8.28454894       8.97206492      -8.86931025
H       10.16100870       4.79970852      -8.81466282
H       12.58318762       5.62837612     -11.13574765
H       13.89185745       6.98239820     -12.72118971
H       11.35589657      10.36458228     -11.89517257
C       -1.79187507      -1.79187507      -1.79187507
C       -1.21957007      -2.82982619      -2.51523282
C       -2.03329217      -3.62579892      -3.31690605
C       -3.42176964      -3.38613582      -3.39960765
C       -3.99228473      -2.32822303      -2.65944911
C       -3.16358499      -1.54789749      -1.86549032
N       -5.30715401      -2.04901445      -2.69786107
C       -6.10186499      -2.81535994      -3.48285785
C       -5.64978028      -3.87478817      -4.25057897
C       -4.28586110      -4.15940351      -4.19900560
O       -3.73634500      -5.19368369      -4.92179087
C       -6.56024886      -4.62067824      -5.06199869
C       -7.28948793      -5.26266991      -5.76847665
C       -8.19177659      -6.08338696      -6.68927678
C       -8.91701105      -6.70416706      -7.41996453
C       -9.81339667      -7.40129979      -8.28701674
C       -9.35633367      -8.44179451      -9.07748261
N      -10.13288180      -9.14588992      -9.93510961
C      -11.43275700      -8.81610516     -10.03219606
C      -12.00765728      -7.77391611      -9.27331722
C      -11.16395946      -7.07129151      -8.39129964
O      -11.71851394      -6.05527117      -7.64687501
C      -13.37921714      -7.47659443      -9.42359275
C      -14.17103649      -8.19818432     -10.31292348
C      -13.59431051      -9.22096143     -11.05424060
C      -12.23995584      -9.52375620     -10.91156660
Br     -14.65475473     -10.20889357     -12.26811820
H       -0.15241528      -3.02795552      -2.46577350
H       -1.58536005      -4.43908853      -3.88517570
H       -3.60496335      -0.73326974      -1.29668078
H       -7.15170674      -2.53170887      -3.47104087
H       -4.43375885      -5.65723058      -5.41474512
H       -8.31585951      -8.75730881      -9.05275578
H      -11.04181659      -5.66391347      -7.06964998
H      -13.83048651      -6.67401862      -8.84280626
H      -15.22460499      -7.95380121     -10.41703917
H      -11.79468167     -10.32558869     -11.49538106
C       -1.79187507       1.79187507       1.79187507
C       -3.09611640       1.40226487       2.06624781
C       -3.89089943       2.21517074       2.86992697
C       -3.38533233       3.42121839       3.40096238
C       -2.05781989       3.80676817       3.11536880
C       -1.28222439       2.98131359       2.31343482
N       -1.51983396       4.94409703       3.59009854
C       -2.29173712       5.74262099       4.36572468
C       -3.60393666       5.46395610       4.70725467
C       -4.15013632       4.27950313       4.21463076
O       -5.44471202       3.90856901       4.49853852
C       -4.34870227       6.37365322       5.52057031
C       -5.01335303       7.11843810       6.18884336
C       -5.88636274       8.05660339       7.02147420
C       -6.55983688       8.81798987       7.66331589
C       -7.32642277       9.76202549       8.41326494
C       -8.64783193       9.49769059       8.73008828
N       -9.44890455      10.34077226       9.42420452
C       -8.93443130      11.51393749       9.83268943
C       -7.59932251      11.88787315       9.56769496
C       -6.80133167      10.97874704       8.84647189
O       -5.49803006      11.33620530       8.58642475
C       -7.12103859      13.13527952      10.02308621
C       -7.95142110      14.00173867      10.72898451
C       -9.26297017      13.62313161      10.98341076
C       -9.74465909      12.39151158      10.53910797
Br     -10.40447078      14.78893516      11.93836055
H       -3.50318105       0.47845516       1.66450808
H       -4.91384020       1.91107482       3.08470924
H       -0.26022862       3.28042213       2.09426310
H       -1.79640746       6.64723556       4.71081347
H       -5.85685474       4.57071580       5.07816401
H       -9.12870297       8.57066339       8.42655775
H       -5.05213623      10.62209214       8.10115167
H       -6.09299737      13.43186293       9.82245109
H       -7.56659842      14.95895522      11.06989172
H      -10.77276169      12.10147544      10.74141429
C        1.79187507      -1.79187507       1.79187507
C        3.13719719      -1.48348492       1.94394696
C        3.93138057      -2.29567064       2.74894593
C        3.38399513      -3.41993161       3.40358637
C        2.01496390      -3.72331423       3.24167873
C        1.24087757      -2.89997159       2.43612364
N        1.43590299      -4.78072434       3.83740220
C        2.20622039      -5.57884569       4.61501670
C        3.55674518      -5.37670226       4.84169998
C        4.14593055      -4.27429295       4.22404672
O        5.48104819      -3.98308186       4.38768950
C        4.29511722      -6.28071571       5.66709286
C        4.95442237      -7.02482047       6.34139165
C        5.81981746      -7.96547058       7.17915229
C        6.48474111      -8.72860758       7.82779395
C        7.23762951      -9.67286612       8.59121757
C        8.59444639      -9.48740360       8.79376081
N        9.38450504     -10.33776148       9.49161481
C        8.82132175     -11.43723607      10.02250040
C        7.44710284     -11.72704892       9.88073886
C        6.66269567     -10.81313097       9.15072396
O        5.32164337     -11.08860656       9.01041019
C        6.91824920     -12.89981084      10.46134428
C        7.73671149     -13.77480677      11.17062603
C        9.08702628     -13.47931113      11.30317513
C        9.61899638     -12.32173096      10.73455130
Br      10.21275017     -14.65806607      12.26095026
H        3.57656750      -0.62346442       1.44611238
H        4.98640663      -2.05529823       2.86791941
H        0.18681006      -3.13576222       2.31234157
H        1.67612686      -6.41708704       5.06124259
H        5.88829528      -4.63215559       4.98528368
H        9.11486472      -8.62286411       8.38819529
H        4.89158602     -10.37868091       8.50511311
H        5.85974378     -13.13133396      10.35623364
H        7.31253348     -14.67399979      11.60891210
H       10.67722983     -12.09660774      10.84181385
C       -0.00445707       0.01189536      -1.78238275
H       -0.66409135       0.67374010      -2.43557963
H        0.65740317      -0.63156657      -2.45157240
C       -0.90989263      -0.90692880      -0.91072765
C        0.90977584       0.90977584      -0.90977584
C       -0.00465871       1.77757030       0.00794375
H       -0.66225468       2.44313916      -0.64384735
H        0.64322798       2.43503045       0.67728295
C       -1.78241447       0.00034974      -0.00472694
H       -2.45427497      -0.65498947       0.64260836
H       -2.43311707       0.67328779      -0.65473579
C       -0.91132561       0.90220522       0.91563759
C       -0.01476271      -0.02253852       1.78660255
H       -0.67934791      -0.69751639       2.42135241
H        0.63392994       0.61504881       2.47327442
C        0.01484550      -1.77751727      -0.01636693
H        0.67870853      -2.42144646      -0.68295456
H       -0.62264859      -2.45592969       0.64226336
C        1.78714474       0.01002794       0.00389507
H        2.44202412       0.67113390       0.66197326
H        2.45385902      -0.65136977      -0.64189061
C        0.91606151      -0.90478549       0.90901405
