133
Properties=species:S:1:pos:R:3 pbc="F F F"
C        0.00000000       0.00000000       0.00000000
C        0.91960224       0.91960224      -0.91960224
C        1.50921659       2.04648742      -0.08781733
C        2.64484392       2.85576073      -0.74674829
H        2.97436234       3.55071835       0.03876194
C        3.78277059       2.02875595      -1.07279607
C        4.72066960       1.34713006      -1.34152715
C        5.94661901       0.64201878      -1.90129626
C        6.91068174       0.24755086      -2.50140282
C        8.05124521      -0.12598028      -3.34257805
H        8.74124111      -0.77615566      -2.79166405
C        8.81977025       1.12932759      -3.81718591
C        9.61934903       1.83074570      -2.72563932
Br       8.56779118       3.15132243      -1.75702431
N        7.58096972      -0.82599510      -4.54929615
C        6.96148075      -2.11360332      -4.26065926
N        2.22231154       3.72780856      -1.85292358
C        2.07643527       3.10458251      -3.16196703
H        0.25491083       1.28098609      -1.70527039
H        1.67544534       0.25278201      -1.34123510
H        1.89958647       1.63081685       0.85238531
H        0.70376176       2.73253772       0.20786728
H        8.14164446       1.83570511      -4.31566098
H        9.54536184       0.80882047      -4.57780319
H       10.43236493       2.41222947      -3.17092014
H       10.04007774       1.13896050      -1.99175578
H        6.90892005      -0.23287641      -5.03613935
H        7.64390736      -2.77202732      -3.71476972
H        6.70940809      -2.60893469      -5.20364325
H        6.03200333      -2.00788532      -3.69201267
H        2.92251338       4.46606412      -1.94331653
H        1.28752154       2.35312682      -3.18735018
H        3.00833041       2.65983962      -3.52391766
H        1.79196966       3.87520024      -3.88651124
C       -0.91960224      -0.91960224      -0.91960224
C       -1.66346256      -0.05564904      -1.92440973
C       -2.37066708      -0.80392840      -3.07275747
H       -2.76807620      -0.00425943      -3.71398312
C       -1.44322854      -1.56071204      -3.88038204
C       -0.67882229      -2.18446213      -4.54604240
C        0.09209454      -3.16068150      -5.42134709
C        0.50670274      -4.04831252      -6.11802564
C        0.87614271      -5.20440185      -6.93958383
H        1.76646034      -4.98306526      -7.54014459
C       -0.28039294      -5.59808935      -7.88780145
C       -0.51455893      -4.62446068      -9.03671443
Br      -1.73228361      -3.18258247      -8.56127184
N        1.14531026      -6.36917850      -6.08040253
C        2.31547446      -6.19538599      -5.22862516
N       -3.55711826      -1.57454709      -2.67137833
C       -3.32216840      -2.90216701      -2.11864941
H       -1.58980663      -1.42687532      -0.22448536
H       -0.24341249      -1.63988829      -1.38616167
H       -0.95742979       0.65589673      -2.37648495
H       -2.39914767       0.56144324      -1.39072778
H       -1.20854025      -5.76157310      -7.32289719
H       -0.02312805      -6.56368324      -8.34517422
H       -1.01625079      -5.13466872      -9.86459503
H        0.40767224      -4.17065399      -9.40781227
H        0.32862848      -6.54554391      -5.49526754
H        3.21085966      -5.97855211      -5.81895731
H        2.49963257      -7.12420626      -4.67954295
H        2.17355362      -5.40329724      -4.48638705
H       -4.14107338      -1.68918351      -3.50163713
H       -2.77215661      -2.87772670      -1.17811523
H       -2.80677669      -3.56595208      -2.81935893
H       -4.28985518      -3.36557244      -1.89825351
C       -0.91960224       0.91960224       0.91960224
C       -2.10411359       0.11343592       1.42597183
C       -2.93361205       0.75918378       2.55455711
H       -3.67387444      -0.00863821       2.82108253
C       -2.14355432       1.00220501       3.73856329
C       -1.49238095       1.20250441       4.71444146
C       -0.81815197       1.68044441       5.99133768
C       -0.44109476       2.22279710       6.99574357
C       -0.08258939       2.99941656       8.18583702
H        0.51406622       2.39309431       8.87772141
C       -1.34914646       3.49547162       8.92166567
C       -2.12867716       2.40306169       9.64399519
Br      -3.44162558       1.53627157       8.49824077
N        0.68613112       4.19328244       7.79711945
C        1.98618889       3.87533761       7.21938797
N       -3.74036011       1.91829669       2.14438688
C       -3.05802008       3.20423792       2.08072682
H       -1.21939179       1.74680471       0.27497081
H       -0.26908064       1.28067154       1.71971028
H       -1.74471005      -0.85905489       1.79236285
H       -2.76650778      -0.11903736       0.58096178
H       -2.00457589       4.05137480       8.23705986
H       -1.02905243       4.21105759       9.69187548
H       -2.72572722       2.83904217      10.45074516
H       -1.48645113       1.62340316      10.06093973
H        0.14301894       4.73245527       7.12274665
H        2.59161094       3.27398826       7.90427244
H        2.53034004       4.80574355       7.02871314
H        1.89717895       3.35055106       6.26275856
H       -4.50368000       2.01140775       2.81680627
H       -2.27293853       3.22978609       1.32527391
H       -2.63920937       3.50802187       3.04485646
H       -3.78518124       3.97234673       1.79615316
C        0.91960224      -0.91960224       0.91960224
C        0.66644916      -2.38238269       0.59468949
C        1.67278669      -3.39332521       1.18124103
H        1.35815089      -4.36162503       0.76654283
C        3.01710927      -3.15742806       0.70978528
C        4.12512008      -2.96300332       0.32120341
C        5.61692544      -2.79893827       0.07407034
C        6.81812459      -2.75340407       0.08810677
C        8.27381461      -2.73659823       0.25743013
H        8.77578246      -2.69761985      -0.71665281
C        8.75433658      -3.99533924       1.01660792
C        8.67876368      -5.28652918       0.21044118
Br       6.94875030      -6.16511483       0.36227279
N        8.67550141      -1.56926345       1.05950591
C        8.41658614      -0.29890859       0.39304195
N        1.58979063      -3.57506011       2.63819295
C        2.28458016      -2.59526020       3.46314445
H        0.63824644      -0.66157961       1.94134126
H        1.94623022      -0.60398115       0.71925108
H        0.66418582      -2.51118506      -0.49735286
H       -0.34662954      -2.65198635       0.92307539
H        8.22004703      -4.10219780       1.97076572
H        9.81338420      -3.84807067       1.27053064
H        9.38591930      -6.02003106       0.60956418
H        8.88383498      -5.13980646      -0.85284742
H        8.17494259      -1.58919613       1.94804426
H        8.91721623      -0.24798834      -0.57855481
H        8.80997061       0.51546481       1.00961084
H        7.34636369      -0.11346225       0.25630474
H        1.98668964      -4.49124217       2.85396222
H        1.87395253      -1.59070063       3.36334538
H        3.36053191      -2.56499433       3.26656146
H        2.16349043      -2.87498816       4.51520254
