146
Properties=species:S:1:pos:R:3 pbc="F F F"
C        1.82595437       1.82595437      -1.82595437
O        2.78148284       1.00749111      -2.47917832
C        3.64610941       1.63947939      -3.33065695
C        3.79833230       3.01729415      -3.46753197
C        4.73482860       3.52325240      -4.36828527
C        5.52014703       2.65587829      -5.13098289
C        5.38692742       1.26125334      -5.02231697
C        4.43595710       0.77842010      -4.10384627
C        6.20797380       0.34265740      -5.84396024
C        6.69096729      -0.87337837      -5.33276749
C        7.46600926      -1.73465040      -6.11579990
C        7.77931680      -1.40002068      -7.43311143
C        7.30666933      -0.20628856      -7.97111284
C        6.53671940       0.65225454      -7.17693037
O        7.53670556       0.24681691      -9.24097848
C        7.97071261      -0.72180864     -10.18002811
H        2.29397574       2.54577397      -1.14763372
H        1.15268517       2.30985121      -2.54041133
H        3.21729980       3.72620811      -2.88824937
H        4.86014244       4.59807677      -4.47530668
H        6.25273881       3.08842494      -5.80990398
H        4.28266195      -0.29334161      -3.99065803
H        6.48180083      -1.16079232      -4.30385482
H        7.83155907      -2.66646692      -5.69045925
H        8.39990239      -2.08414710      -8.00131844
H        6.17286700       1.57316148      -7.62874711
H        7.30126626      -1.58644883     -10.21934403
H        9.01074961      -1.01384282     -10.00864829
C        7.93470159      -0.13752792     -11.49567215
C        7.90454237       0.35180717     -12.59752404
Br       7.85577746       1.14302064     -14.37912536
C       -1.82595437      -1.82595437      -1.82595437
O       -1.51556057      -3.18485089      -1.56774081
C       -2.23378296      -4.11794070      -2.26452209
C       -3.09468255      -3.85977274      -3.32870313
C       -3.75178852      -4.91626869      -3.95830906
C       -3.54941237      -6.22954432      -3.52805151
C       -2.69328793      -6.52385267      -2.45335712
C       -2.04139726      -5.43866376      -1.83816246
C       -2.49273782      -7.91497216      -1.98688147
C       -1.24186042      -8.37030409      -1.53819190
C       -1.06148236      -9.68592346      -1.09975294
C       -2.13027456     -10.58209951      -1.10003349
C       -3.38449858     -10.15747795      -1.52951707
C       -3.55335480      -8.83996972      -1.97257978
O       -4.51505630     -10.92535913      -1.58408551
C       -4.49874701     -12.11543199      -0.81475308
H       -1.59361964      -1.53803849      -2.85572530
H       -2.85942948      -1.58900802      -1.55451020
H       -3.27278728      -2.85731856      -3.70165143
H       -4.42140259      -4.71987674      -4.79224657
H       -4.06601188      -7.02886761      -4.05618824
H       -1.37818279      -5.60972367      -0.99207190
H       -0.38011556      -7.70516310      -1.53958467
H       -0.07957573     -10.01170559      -0.76427008
H       -1.94558320     -11.59919810      -0.77229243
H       -4.54788835      -8.53457118      -2.29231607
H       -4.23910497     -11.92630761       0.23125113
H       -3.85975111     -12.88000809      -1.26579587
C       -5.82737473     -12.67037521      -0.79509589
C       -6.94010044     -13.13514016      -0.77863299
Br      -8.73928381     -13.88662577      -0.75201387
C       -1.82595437       1.82595437       1.82595437
O       -1.64449572       3.17916447       1.44449207
C       -2.38138814       4.10928263       2.12557497
C       -3.13830378       3.87387855       3.27097610
C       -3.82920325       4.92583354       3.87132948
C       -3.76416779       6.21205156       3.33078886
C       -3.01564813       6.48219513       2.17265447
C       -2.32658957       5.40247845       1.58915546
C       -2.96128720       7.84278294       1.59052131
C       -1.78704439       8.35186776       1.01144427
C       -1.74466636       9.63814480       0.46434759
C       -2.87842300      10.45034684       0.48363773
C       -4.05984996       9.97001727       1.04162638
C       -4.09028326       8.68307884       1.59254220
O       -5.24080511      10.65444965       1.12924618
C       -5.37591274      11.77751671       0.27550262
H       -1.49624604       1.63875603       2.85238135
H       -2.85448377       1.49269898       1.65576496
H       -3.20815486       2.89387945       3.72972297
H       -4.41783151       4.74761542       4.76807897
H       -4.30240592       7.01062647       3.83803534
H       -1.74320330       5.55407581       0.68269925
H       -0.87736868       7.75422362       0.99327103
H       -0.81916716      10.00763851       0.02874572
H       -2.79985947      11.44898501       0.06822925
H       -5.03111604       8.33166612       2.01199343
H       -5.17979444      11.52542821      -0.77106120
H       -4.76827928      12.62052526       0.61675054
C       -6.74229987      12.22977431       0.32077165
C       -7.88664909      12.60854004       0.35868445
Br      -9.73696500      13.22097220       0.41998626
C        1.82595437      -1.82595437       1.82595437
O        3.08234395      -1.19135794       1.99445039
C        3.99396484      -1.84167977       2.78060113
C        3.87453212      -3.14136261       3.26726370
C        4.89475261      -3.68373881       4.04787485
C        6.03406785      -2.93117145       4.34176891
C        6.18293408      -1.61505167       3.87251197
C        5.13911666      -1.09400820       3.08509862
C        7.38354712      -0.81197952       4.19906481
C        7.95416416       0.07428127       3.27047352
C        9.08834200       0.82851138       3.58732814
C        9.68270926       0.71426139       4.84395969
C        9.13424356      -0.14827602       5.78897404
C        8.00224140      -0.90383937       5.45982354
O        9.61153554      -0.35977619       7.05318921
C       10.49516147       0.62574452       7.55951512
H        1.91284628      -2.77903860       1.29549854
H        1.29522584      -1.93027335       2.77744851
H        3.01267449      -3.76413742       3.05494537
H        4.80778320      -4.69942772       4.42631498
H        6.81682307      -3.39537053       4.93887413
H        5.19754217      -0.07456060       2.70787559
H        7.52878708       0.17771560       2.27379185
H        9.51176907       1.50159262       2.84537495
H       10.57293275       1.30022547       5.04436645
H        7.59031247      -1.56144520       6.22301793
H       10.06997753       1.63198118       7.49616510
H       11.48097511       0.56502402       7.08960399
C       10.70851273       0.37748276       8.96181585
C       10.88719441       0.16956354      10.13624272
Br      11.17610758      -0.16662425      12.03519162
C       -0.00445707       0.01189536      -1.78238275
H       -0.66409135       0.67374010      -2.43557963
H        0.65740317      -0.63156657      -2.45157240
C       -0.90989263      -0.90692880      -0.91072765
C        0.90977584       0.90977584      -0.90977584
C       -0.00465871       1.77757030       0.00794375
H       -0.66225468       2.44313916      -0.64384735
H        0.64322798       2.43503045       0.67728295
C       -1.78241447       0.00034974      -0.00472694
H       -2.45427497      -0.65498947       0.64260836
H       -2.43311707       0.67328779      -0.65473579
C       -0.91132561       0.90220522       0.91563759
C       -0.01476271      -0.02253852       1.78660255
H       -0.67934791      -0.69751639       2.42135241
H        0.63392994       0.61504881       2.47327442
C        0.01484550      -1.77751727      -0.01636693
H        0.67870853      -2.42144646      -0.68295456
H       -0.62264859      -2.45592969       0.64226336
C        1.78714474       0.01002794       0.00389507
H        2.44202412       0.67113390       0.66197326
H        2.45385902      -0.65136977      -0.64189061
C        0.91606151      -0.90478549       0.90901405
