114
Properties=species:S:1:pos:R:3 pbc="F F F"
O       -0.35400094       6.71611611      -1.03764505
C        0.47224712       5.98095790      -1.57115244
C        0.69957507       5.90454922      -2.99650033
C        0.20849301       6.78955965      -3.94551060
C        0.74466061       6.43760653      -5.19825250
C        1.53213024       5.32855769      -4.99785697
N        1.50160862       4.98149422      -3.65995319
C        2.08821406       3.80321362      -3.11863281
C        1.28347553       2.98590239      -2.30356252
C        1.79181276       1.79181276      -1.79181276
C        3.09157574       1.39280676      -2.08464127
C        3.89538146       2.19966396      -2.89139802
C        3.40463459       3.40585705      -3.41112333
H        1.10378879       5.33868193      -0.93400326
H       -0.44992893       7.62439579      -3.73205199
H        0.56712159       6.92755197      -6.14739192
H        2.06828502       4.72705393      -5.72020804
H        0.24481402       3.24270124      -2.10268284
H        3.49109549       0.46254918      -1.68814188
H        4.91710034       1.88451845      -3.09537088
C        4.36099034       4.21889730      -4.11677851
C        5.16193827       4.89981851      -4.70776473
Br       6.45700334       6.00081052      -5.66333946
O       -5.95386536       1.49227499      -2.93816985
C       -5.39475337       0.40313595      -3.03274004
C       -6.01505838      -0.86459913      -2.72096712
C       -7.36891744      -1.07365180      -2.50099402
C       -7.58325833      -2.45546998      -2.34179134
C       -6.35426460      -3.06382511      -2.44045519
N       -5.38408155      -2.10279493      -2.65617955
C       -3.98405233      -2.35826170      -2.66774645
C       -3.16394907      -1.54935381      -1.85963756
C       -1.79181276      -1.79181276      -1.79181276
C       -1.22092856      -2.83490889      -2.51318633
C       -2.02869748      -3.64007610      -3.31766986
C       -3.40902349      -3.40936306      -3.40322842
H       -4.35245429       0.36895143      -3.39297112
H       -8.12249038      -0.29387901      -2.49014945
H       -8.52663323      -2.95504017      -2.16039208
H       -6.09191201      -4.10643658      -2.31719839
H       -3.58872189      -0.76152893      -1.23994729
H       -0.15200808      -3.02736243      -2.46241604
H       -1.56492042      -4.43984250      -3.89222676
C       -4.12006708      -4.21340652      -4.36319254
C       -4.71556610      -4.88679293      -5.16716249
Br      -5.67843763      -5.97560178      -6.46711391
O        0.24949497       6.73928360       0.90997159
C       -0.55341070       5.99927644       1.47167033
C       -0.75361697       5.94491933       2.90208832
C       -0.26183718       6.85586283       3.82586324
C       -0.76883818       6.51733245       5.09434902
C       -1.53933269       5.39080837       4.92840384
N       -1.52653513       5.01989404       3.59662686
C       -2.10109751       3.82152844       3.08743453
C       -1.29631451       3.00403205       2.27259388
C       -1.79181276       1.79181276       1.79181276
C       -3.07856713       1.37491689       2.11553976
C       -3.88237566       2.18182715       2.92224063
C       -3.40454024       3.40597554       3.41109920
H       -1.18444002       5.33417427       0.85785969
H        0.37723004       7.69835959       3.58538929
H       -0.58325689       7.02770196       6.03110663
H       -2.05129179       4.79309149       5.67116370
H       -0.26631538       3.27575439       2.04812833
H       -3.46804426       0.43051235       1.74322994
H       -4.89431300       1.85213892       3.15053774
C       -4.36278092       4.21446945       4.11941577
C       -5.16530750       4.89158311       4.71263091
Br      -6.46292509       5.98641862       5.67180961
O        5.97783487       1.47567788       2.89760323
C        5.41334140       0.39013745       3.00115351
C        6.02504146      -0.88263996       2.69294320
C        7.37652409      -1.10027306       2.46676611
C        7.58248560      -2.48408510       2.31394895
C        6.35076342      -3.08517609       2.42260538
N        5.38700574      -2.11770573       2.63834456
C        3.98569392      -2.36545793       2.65890864
C        3.16559535      -1.55648457       1.85086052
C        1.79181276      -1.79181276       1.79181276
C        1.21921980      -2.82784360       2.52196037
C        2.02698492      -3.63302873       3.32642979
C        3.40899000      -3.40939452       3.40323045
H        4.37285445       0.36360109       3.36722062
H        8.13424993      -0.32469680       2.44757212
H        8.52212924      -2.98977638       2.13015986
H        6.08208387      -4.12699352       2.30646958
H        3.59125023      -0.77436746       1.22458041
H        0.14900872      -3.01473082       2.47804701
H        1.56201567      -4.42711913       3.90785487
C        4.12088769      -4.21208350       4.36369497
C        4.71710200      -4.88433551       5.16808400
Br       5.68113011      -5.97131017       6.46871304
C       -0.00445707       0.01189536      -1.78238275
H       -0.66409135       0.67374010      -2.43557963
H        0.65740317      -0.63156657      -2.45157240
C       -0.90989263      -0.90692880      -0.91072765
C        0.90977584       0.90977584      -0.90977584
C       -0.00465871       1.77757030       0.00794375
H       -0.66225468       2.44313916      -0.64384735
H        0.64322798       2.43503045       0.67728295
C       -1.78241447       0.00034974      -0.00472694
H       -2.45427497      -0.65498947       0.64260836
H       -2.43311707       0.67328779      -0.65473579
C       -0.91132561       0.90220522       0.91563759
C       -0.01476271      -0.02253852       1.78660255
H       -0.67934791      -0.69751639       2.42135241
H        0.63392994       0.61504881       2.47327442
C        0.01484550      -1.77751727      -0.01636693
H        0.67870853      -2.42144646      -0.68295456
H       -0.62264859      -2.45592969       0.64226336
C        1.78714474       0.01002794       0.00389507
H        2.44202412       0.67113390       0.66197326
H        2.45385902      -0.65136977      -0.64189061
C        0.91606151      -0.90478549       0.90901405
