85
Properties=species:S:1:pos:R:3 pbc="F F F"
C        0.00000000       0.00000000       0.00000000
O       -1.26390496       5.80621208      -0.12774103
C       -0.43765690       5.07105387      -0.66124842
C       -0.21032895       4.99464519      -2.08659631
C       -0.70141101       5.87965563      -3.03560657
C       -0.16524341       5.52770251      -4.28834848
C        0.62222621       4.41865366      -4.08795295
N        0.59170460       4.07159019      -2.75004916
C        1.17831004       2.89330960      -2.20872878
C        0.37357151       2.07599837      -1.39365850
C        0.88190874       0.88190874      -0.88190874
C        2.18167172       0.48290274      -1.17473725
C        2.98547744       1.28975993      -1.98149400
C        2.49473057       2.49595302      -2.50121931
Br       3.75856139       3.57039142      -3.43374758
H        0.19388477       4.42877791      -0.02409923
H       -1.35983295       6.71449176      -2.82214796
H       -0.34278243       6.01764794      -5.23748790
H        1.15838099       3.81714990      -4.81030401
H       -0.66509000       2.33279722      -1.19277881
H        2.58119147      -0.44735485      -0.77823786
H        4.00719632       0.97461442      -2.18546686
O       -4.63477203      -2.64862061       2.61334449
C       -4.15444644      -2.62374604       1.48354708
C       -3.79448818      -3.79810920       0.72168483
C       -4.14113198      -5.10513297       1.03241377
C       -3.69971834      -5.94009228      -0.01099695
C       -3.06803313      -5.13320169      -0.92759800
N       -3.10391337      -3.82367564      -0.48575495
C       -2.42524203      -2.74162207      -1.11348432
C       -1.61209954      -1.92296024      -0.30816859
C       -0.88190874      -0.88190874      -0.88190874
C       -0.94289538      -0.64532938      -2.25108695
C       -1.74862308      -1.45290752      -3.05520077
C       -2.49409196      -2.50094639      -2.49686455
Br      -3.67795696      -3.39930018      -3.68544323
H       -3.99343772      -1.64788970       0.99456551
H       -4.68845988      -5.40696790       1.91862100
H       -3.81487544      -7.01431936      -0.08315861
H       -2.54616151      -5.40339083      -1.83628256
H       -1.49955763      -2.11787032       0.75694192
H       -0.37478589       0.16469948      -2.70198807
H       -1.80219686      -1.24313045      -4.12195028
O       -2.90656841      -2.67654637       4.44002611
C       -2.82437403      -1.53218897       4.00246033
C       -3.95723258      -0.71573312       3.62941310
C       -5.28618145      -0.99053833       3.91820806
C       -6.06717804       0.09757698       3.48605255
C       -5.20595911       1.00578378       2.91708992
N       -3.91499938       0.51541706       2.98292752
C       -2.78743437       1.12673000       2.36618404
C       -1.96850388       0.32120260       1.55352189
C       -0.88190874       0.88190874       0.88190874
C       -0.59961849       2.23853302       1.00116020
C       -1.40725111       3.04271651       1.80676375
C       -2.50083986       2.49711133       2.49395171
Br      -3.39939548       3.67525600       3.68804890
H       -1.82666518      -1.07380624       3.89390297
H       -5.63884355      -1.88386466       4.42182788
H       -7.14168423       0.20482285       3.56584632
H       -5.42472176       1.94155397       2.41955917
H       -2.19658168      -0.73145116       1.39535550
H        0.24600363       2.67928527       0.47879284
H       -1.16211399       4.09854190       1.90662171
O       -0.27066623       0.92429175       5.86500612
C        0.35077963       0.17385904       5.11772480
C        1.78909607       0.03118321       5.11299969
C        2.65670710       0.52129289       6.07843697
C        3.95655627       0.07743813       5.77168943
C        3.86505757      -0.65316456       4.61061070
N        2.54909650      -0.67679088       4.18745658
C        2.10980259      -1.22209721       2.94844862
C        1.29546669      -0.41719240       2.13056928
C        0.88190874      -0.88190874       0.88190874
C        1.27268193      -2.13753401       0.42909575
C        2.07925898      -2.94135539       1.23611699
C        2.50112982      -2.49444126       2.49633182
Br       3.44529998      -3.76555226       3.55184814
H       -0.21123238      -0.45319699       4.40479729
H        2.35860409       1.11639925       6.93460193
H        4.86480065       0.27835426       6.32590702
H        4.65016440      -1.11182703       4.02384347
H        1.01966509       0.59170413       2.43252507
H        0.95287828      -2.50293786      -0.54374166
H        2.36039398      -3.92975046       0.87713316
