93
Properties=species:S:1:pos:R:3 pbc="F F F"
C        0.00000000       0.00000000       0.00000000
O       -1.26390496       5.80621208      -0.12774103
C       -0.43765690       5.07105387      -0.66124842
C       -0.21032895       4.99464519      -2.08659631
C       -0.70141101       5.87965563      -3.03560657
C       -0.16524341       5.52770251      -4.28834848
C        0.62222621       4.41865366      -4.08795295
N        0.59170460       4.07159019      -2.75004916
C        1.17831004       2.89330960      -2.20872878
C        0.37357151       2.07599837      -1.39365850
C        0.88190874       0.88190874      -0.88190874
C        2.18167172       0.48290274      -1.17473725
C        2.98547744       1.28975993      -1.98149400
C        2.49473057       2.49595302      -2.50121931
H        0.19388477       4.42877791      -0.02409923
H       -1.35983295       6.71449176      -2.82214796
H       -0.34278243       6.01764794      -5.23748790
H        1.15838099       3.81714990      -4.81030401
H       -0.66509000       2.33279722      -1.19277881
H        2.58119147      -0.44735485      -0.77823786
H        4.00719632       0.97461442      -2.18546686
C        3.45108631       3.30899328      -3.20687449
C        4.25203425       3.98991449      -3.79786071
Br       5.54709932       5.09090650      -4.75343543
O       -2.05402670      -5.02856595       2.41254451
C       -2.14289472      -4.47290972       1.32115905
C       -1.82889624      -5.09867933       0.05666301
C       -1.61289704      -6.45400686      -0.14694729
C       -1.44966546      -6.67368562      -1.52745649
C       -1.54196577      -5.44647477      -2.14039228
N       -1.75764431      -4.47222640      -1.18347324
C       -1.76347493      -3.07305964      -1.44381384
C       -0.95532722      -2.25295375      -0.63494740
C       -0.88190874      -0.88190874      -0.88190874
C       -1.59769089      -0.31215534      -1.92946547
C       -2.40218344      -1.11992660      -2.73462133
C       -2.49332329      -2.49914066      -2.49943894
H       -2.49938999      -3.42949712       1.28212520
H       -1.60735899      -7.20490497       0.63545719
H       -1.26981292      -7.61940781      -2.02313268
H       -1.41419895      -5.18816563      -3.18347033
H       -0.33983872      -2.67713117       0.15648386
H       -1.54255063       0.75590974      -2.12543359
H       -2.97236264      -0.65694272      -3.53797224
C       -3.45296314      -3.20964670      -3.30434424
C       -4.25666151      -3.80469551      -3.97845242
Br      -5.55617380      -4.76683910      -5.06842834
O       -2.99907894      -2.69547339       4.36644260
C       -2.89631818      -1.54671828       3.94504550
C       -4.01350125      -0.71068808       3.56809938
C       -5.34957875      -0.97173710       3.83600953
C       -6.11066209       0.13205155       3.40809394
C       -5.23034494       1.03616867       2.86231921
N       -3.94682608       0.52807799       2.93843989
C       -2.80342922       1.13247327       2.34444592
C       -1.98440731       0.32686233       1.53195873
C       -0.88190874       0.88190874       0.88190874
C       -0.58364726       2.23304893       1.02261551
C       -1.39129794       3.03725931       1.82817411
C       -2.50079773       2.49720125       2.49390391
H       -1.89141169      -1.10010921       3.85545942
H       -5.72037463      -1.86680809       4.32324022
H       -7.18464306       0.25235620       3.47535415
H       -5.43040628       1.98110182       2.37432680
H       -2.22401425      -0.72056662       1.35703840
H        0.27440437       2.66939193       0.51708693
H       -1.13382772       4.08839116       1.94505872
C       -3.18093996       3.38578229       3.40023183
C       -3.75055908       4.12996891       4.15928145
Br      -4.67158501       5.33325573       5.38660050
O       -0.33623152       0.86445594       5.87073561
C        0.29967657       0.12736964       5.12233846
C        1.73929335      -0.00136972       5.13024948
C        2.59273349       0.48765930       6.10877700
C        3.89974408       0.05937571       5.81043920
C        3.82657380      -0.66072974       4.64152929
N        2.51504923      -0.69292796       4.20536677
C        2.09306312      -1.23035084       2.95693446
C        1.27885329      -0.42541062       2.13896446
C        0.88190874      -0.88190874       0.88190874
C        1.28924642      -2.12923441       0.42083087
C        2.09579234      -2.93306038       1.22787865
C        2.50111095      -2.49439514       2.49639680
H       -0.24929537      -0.49810438       4.39795289
H        2.28060054       1.07149274       6.96769897
H        4.80059859       0.26363654       6.37539136
H        4.62173636      -1.10605796       4.05804059
H        0.99033555       0.57778842       2.44793891
H        0.98241867      -2.48821192      -0.55855611
H        2.38999347      -3.91515285       0.86213128
C        3.21717297      -3.45705748       3.29272364
C        3.81687491      -4.26328718       3.95964736
Br       4.78654222      -5.56689242       5.03800661
