173
Properties=species:S:1:pos:R:3 pbc="F F F"
C        0.00000000       0.00000000       0.00000000
O        3.65045972      -3.00554341      -3.24597305
C        3.48187004      -1.80088727      -3.06842949
C        3.25623809      -0.84150845      -4.13081055
C        3.48044909      -1.08852201      -5.47714485
C        3.29500027       0.11292695      -6.18189010
C        2.92572694       1.06669783      -5.26161442
N        2.84300883       0.49035182      -4.00688767
C        2.31490353       1.13821524      -2.83974554
C        1.47320635       0.34931114      -2.02179310
C        0.88104888       0.88104888      -0.88104888
C        1.09439603       2.20440129      -0.54050811
C        1.92079605       2.99639764      -1.34152123
C        2.54858938       2.51034413      -2.51666305
C        3.53107145       3.42921060      -3.18278099
C        4.84322861       2.93602276      -3.38591115
C        5.89125010       3.74345064      -3.83841561
C        5.66377018       5.08647529      -4.08504446
C        4.39346583       5.62350460      -3.90883407
C        3.32527204       4.81718222      -3.45598812
N        2.04775201       5.46268321      -3.35674449
C        0.85518149       4.91768501      -3.79279366
C       -0.13066198       5.87543181      -3.74020007
C        0.45317094       7.03975425      -3.21217747
C        1.78243871       6.76328546      -2.92279077
C        2.68336744       7.66562067      -2.23520394
O        2.43516339       8.84382949      -1.98986090
H        3.52349557      -1.40464564      -2.04132919
H        3.78981686      -2.04484013      -5.88695891
H        3.40903787       0.26454479      -7.24784301
H        2.65027629       2.09937329      -5.42197098
H        1.22751161      -0.67688150      -2.28887422
H        0.63677630       2.63344482       0.34736496
H        2.09302867       4.01917019      -1.00786725
H        5.08288970       1.89768733      -3.15988179
H        6.87922649       3.31156520      -3.97778401
H        4.23839117       6.66763560      -4.17468234
H        0.80865899       3.90794875      -4.17556237
H       -1.15946987       5.75123844      -4.05425090
H       -0.03895391       7.98593847      -3.01432733
H        3.64533332       7.24733914      -1.89464380
C        6.74561288       5.93222428      -4.51854767
C        7.65165614       6.64053905      -4.88160661
Br       9.11665146       7.78582413      -5.46864220
O       -5.60563943       0.88986385       0.82488622
C       -4.97547514       0.09102796       0.13503492
C       -5.16746199      -0.08795441      -1.29012379
C       -6.25472419       0.39134349      -2.00569123
C       -6.16935933      -0.10169185      -3.31876614
C       -5.01385246      -0.84455417      -3.39563256
N       -4.35701466      -0.80427608      -2.17895757
C       -3.03607181      -1.31424159      -1.94255091
C       -2.19179860      -0.50173827      -1.15077371
C       -0.88104888      -0.88104888      -0.88104888
C       -0.37707730      -2.05786903      -1.40435910
C       -1.19891374      -2.86853560      -2.19126558
C       -2.54118339      -2.53232910      -2.50208406
C       -3.34557302      -3.57517012      -3.22231991
C       -4.55877786      -3.98761639      -2.61876826
C       -5.31168415      -5.06438489      -3.09704732
C       -4.86132036      -5.78248514      -4.19148443
C       -3.67990476      -5.41824632      -4.82765342
C       -2.91224907      -4.32966517      -4.35652814
N       -1.73821747      -4.01151005      -5.11745218
C       -1.35618182      -2.73301607      -5.47646228
C       -0.31270493      -2.80233578      -6.36992919
C       -0.00367478      -4.16300710      -6.53842078
C       -0.84680638      -4.90195549      -5.71975306
C       -0.74698389      -6.33128089      -5.50592727
O       -0.02699286      -7.08391978      -6.15794115
H       -4.22638932      -0.55448176       0.62069196
H       -7.04756774       1.00423694      -1.58860483
H       -6.87033846       0.07392623      -4.12501344
H       -4.57851277      -1.34312771      -4.24998008
H       -2.52813350       0.46236136      -0.77373219
H        0.64585619      -2.36581724      -1.20289511
H       -0.77019997      -3.80607743      -2.54378871
H       -4.92950715      -3.48433544      -1.72661623
H       -6.23670774      -5.33691879      -2.59494917
H       -3.39173155      -5.96564103      -5.72333652
H       -1.89978303      -1.86748242      -5.12490466
H        0.17085258      -1.96300587      -6.85386619
H        0.78068428      -4.58332675      -7.15866942
H       -1.34701341      -6.75633311      -4.68396974
C       -5.61329165      -6.91377297      -4.66932020
C       -6.24306761      -7.86122653      -5.06950766
Br      -7.26136207      -9.39317880      -5.71657693
O       -3.19041769      -3.00173322       3.70220489
C       -3.12304817      -1.80463322       3.43099731
C       -2.89634177      -0.75684405       4.40604247
C       -3.00945644      -0.91927887       5.77889436
C       -2.86487096       0.34042031       6.38452605
C       -2.63012870       1.24717479       5.37673570
N       -2.59122232       0.58744335       4.16158264
C       -2.19288020       1.18257965       2.91740448
C       -1.35343051       0.39514990       2.09573017
C       -0.88104888       0.88104888       0.88104888
C       -1.21351599       2.15824393       0.46754551
C       -2.03912784       2.94855321       1.27103387
C       -2.54796601       2.50819726       2.51943329
C       -3.54737575       3.40420535       3.19148193
C       -4.80294551       2.83883734       3.52337967
C       -5.87397774       3.60384431       3.99529430
C       -5.72920615       4.97371264       4.13237114
C       -4.51665391       5.58181808       3.82733250
C       -3.42565505       4.81926257       3.35352476
N       -2.20861829       5.54142593       3.11713549
C       -0.95235588       5.11249267       3.50081162
C       -0.04522304       6.12884691       3.31089995
C       -0.74745678       7.20879385       2.74885202
C       -2.06953772       6.82180469       2.57717253
C       -3.07896831       7.60775221       1.89747153
O       -2.93507340       8.77900335       1.55477704
H       -3.26358305      -1.48847230       2.38506836
H       -3.21924093      -1.86187823       6.27457293
H       -2.91670402       0.56159021       7.44313144
H       -2.42077722       2.30520619       5.44563715
H       -1.01556222      -0.58955309       2.41349520
H       -0.85021662       2.55131028      -0.47867073
H       -2.30819544       3.92998890       0.88188177
H       -4.98075405       1.77280522       3.38689955
H       -6.81583792       3.11692104       4.23581674
H       -4.42071419       6.65076183       4.00923309
H       -0.80597028       4.13904776       3.94715206
H        1.00894481       6.09849101       3.55647327
H       -0.34062684       8.16931068       2.45137438
H       -4.02869522       7.10097805       1.65764298
C       -6.83799381       5.77314813       4.58524288
C       -7.76660348       6.44267536       4.96452295
Br      -9.26808678       7.52524426       5.57778675
O       -2.66847615      -4.73949190       1.81987360
C       -1.56001377      -4.26010934       2.04931670
C       -0.30993616      -4.97369748       1.88177887
C       -0.20119335      -6.34732339       1.72294188
C        1.16245638      -6.68592979       1.74143115
C        1.86712230      -5.51182206       1.87509484
N        0.98640440      -4.44570740       1.90813652
C        1.36979847      -3.06312686       1.85993898
C        0.58414384      -2.23192842       1.02823832
C        0.88104888      -0.88104888       0.88104888
C        1.96898651      -0.33379334       1.53652558
C        2.75600620      -1.14411424       2.35859448
C        2.50374329      -2.52726269       2.54459057
C        3.33570306      -3.22895749       3.57840249
C        2.64572507      -3.90530445       4.61413300
C        3.29779940      -4.45139343       5.72392353
C        4.67050468      -4.31980879       5.84497646
C        5.39988170      -3.67096157       4.85496123
C        4.75318185      -3.11849297       3.72676756
N        5.60742363      -2.51539449       2.74436159
C        5.48799540      -2.69779997       1.37986480
C        6.58241219      -2.15352423       0.74903347
C        7.38649125      -1.57344512       1.74516629
C        6.75264267      -1.74805289       2.96781937
C        7.19673488      -1.16844214       4.21901503
O        8.27853320      -0.60874497       4.38157562
H       -1.49617907      -3.22775976       2.42859843
H       -1.04226232      -7.02905016       1.64514780
H        1.58605636      -7.67871576       1.65665355
H        2.93631755      -5.35436339       1.88093962
H       -0.24095308      -2.63595477       0.44450265
H        2.21349775       0.72003264       1.42939106
H        3.57489536      -0.65761906       2.88755169
H        1.56019728      -3.99249153       4.58777001
H        2.71795421      -4.96132598       6.48929551
H        6.48366457      -3.64399834       4.95304620
H        4.66773224      -3.26344697       0.96099089
H        6.78384983      -2.17679906      -0.31462942
H        8.31950128      -1.03875570       1.60305492
H        6.49687770      -1.22066397       5.06977458
C        5.34535872      -4.84950624       7.00151986
C        5.91054899      -5.29312785       7.97012495
Br       6.82441384      -6.01042648       9.53627747
