186
Properties=species:S:1:pos:R:3 pbc="F F F"
O        2.48845416       6.87675141       0.49903138
C        2.35101703       5.76053933       0.00822227
C        1.07863556       5.15531300      -0.32555488
C       -0.15985931       5.62305082       0.09211801
C       -1.14486150       4.71592051      -0.33487886
C       -0.49774361       3.73205617      -1.04240692
N        0.86412959       3.97804545      -1.04411790
C        1.82536655       3.20207161      -1.76286344
C        2.82040603       3.88435619      -2.49531391
C        3.80249774       3.20473097      -3.24681395
C        3.71734377       1.80673286      -3.29710018
C        2.73520798       1.11421307      -2.58279284
C        1.79963786       1.79963786      -1.79963786
C        4.90951217       3.93823950      -3.90527181
C        6.21471630       3.42346234      -3.92034081
C        7.27968332       4.15107674      -4.46187592
C        7.07776357       5.42934103      -4.99237387
C        5.78264767       5.96457236      -5.01326231
C        4.71358757       5.20162928      -4.49167872
N        5.47280610       7.24236826      -5.56686678
C        5.94516426       7.72282350      -6.77365779
C        5.29887053       8.89668325      -7.08279195
C        4.39965518       9.15814898      -6.03327291
C        4.54713260       8.16266744      -5.08000767
C        3.89290302       8.12510237      -3.79152720
O        2.86042707       8.73071377      -3.52031136
Br       8.65849615       6.37903990      -5.45951756
H        3.25040835       5.15437056      -0.18703130
H       -0.31625411       6.52273965       0.67694912
H       -2.21256529       4.78040970      -0.16675899
H       -0.91750898       2.89750130      -1.58738388
H        2.82569645       4.97265034      -2.50179158
H        4.42825257       1.22796084      -3.88460193
H        2.73349687       0.02602788      -2.62026033
H        6.43487260       2.45447206      -3.47493157
H        8.27841259       3.71888471      -4.42389544
H        3.69361289       5.57570058      -4.57798785
H        6.65880328       7.16264219      -7.36190055
H        5.44907211       9.48748334      -7.97754241
H        3.73128476      10.00731703      -5.94421838
H        4.37269259       7.50355242      -3.01689058
O       -6.71657322       0.70120604      -2.85080701
C       -5.63417946       0.16521224      -2.63436686
C       -5.10781973      -0.13289262      -1.31879109
C       -5.61259151       0.36813752      -0.12661950
C       -4.77601250      -0.05176225       0.92183688
C       -3.79908159      -0.83694695       0.35930906
N       -3.97960304      -0.89514626      -1.01154363
C       -3.19564245      -1.69734138      -1.89731777
C       -3.86552114      -2.44533996      -2.88921503
C       -3.17832447      -3.27665985      -3.79905834
C       -1.79025652      -3.38924712      -3.64167318
C       -1.11046053      -2.66048289      -2.66127047
C       -1.79963786      -1.79963786      -1.79963786
C       -3.89025610      -3.95400927      -4.90875811
C       -3.31520598      -4.05898580      -6.18432767
C       -4.01740580      -4.61786724      -7.25736295
C       -5.32881671      -5.07600272      -7.09465904
C       -5.92559216      -5.00642718      -5.82846300
C       -5.18934306      -4.46892966      -4.74862284
N       -7.24284149      -5.48222954      -5.55697011
C       -7.76007069      -6.68687497      -5.99469989
C       -8.97743495      -6.90689517      -5.39401561
C       -9.22859040      -5.80236921      -4.56011747
C       -8.18070220      -4.90626239      -4.70284311
C       -8.10988543      -3.58988506      -4.10976210
O       -8.74971013      -3.23870532      -3.12303674
Br      -6.22423903      -5.57591568      -8.69689889
H       -4.99634162      -0.10354654      -3.49192205
H       -6.48828684       1.00231976      -0.04356933
H       -4.88285656       0.17252061       1.97573255
H       -3.01385167      -1.39939922       0.84587469
H       -4.95128043      -2.40015319      -2.94870475
H       -1.20839153      -4.03856504      -4.29385878
H       -0.02684075      -2.74968367      -2.60326066
H       -2.31572103      -3.67189578      -6.37665942
H       -3.53670482      -4.65062822      -8.23385970
H       -5.61549713      -4.48608970      -3.74571448
H       -7.19665877      -7.33618208      -6.65050517
H       -9.60447973      -7.77884457      -5.53077356
H      -10.10314554      -5.63953708      -3.94013755
H       -7.42812994      -2.87078967      -4.59421598
O        0.81639271       6.60034547       3.08222143
C        0.24031353       5.55839939       2.78524823
C        0.73833471       4.22871809       3.06912006
C        2.03330813       3.93237078       3.47201084
C        2.16908708       2.53509074       3.53993421
C        0.94431549       2.00171977       3.21931520
N        0.05572962       3.02013296       2.92188959
C       -1.33063810       2.82562484       2.63403866
C       -2.26654248       3.68510765       3.24842600
C       -3.65613398       3.56122836       3.03668031
C       -4.08975544       2.49709616       2.23432521
C       -3.17766576       1.63231779       1.62223035
C       -1.79963786       1.79963786       1.79963786
C       -4.60889124       4.55105702       3.59307521
C       -5.71741651       4.98862589       2.85247705
C       -6.56975133       5.98693137       3.33595328
C       -6.33144121       6.59560208       4.57243519
C       -5.24560189       6.16692858       5.34795187
C       -4.41442036       5.13434109       4.85813411
N       -4.94497728       6.70073344       6.63633042
C       -5.86978171       6.93559240       7.63627143
C       -5.21269165       7.26791892       8.79773515
C       -3.83588976       7.24433755       8.51084976
C       -3.67981006       6.94316496       7.16683268
C       -2.42828209       6.93778369       6.44346681
O       -1.32498833       6.81869661       6.96776724
Br      -7.43109486       8.09618566       4.96977309
H       -0.72139837       5.61977770       2.25063414
H        2.80500334       4.66931028       3.66522948
H        3.05432593       1.97500495       3.81392438
H        0.62884233       0.96727851       3.22894002
H       -1.91385377       4.46058575       3.92569885
H       -5.15135977       2.33124390       2.05821168
H       -3.56009795       0.84457970       0.97510743
H       -5.91899342       4.58312836       1.86215445
H       -7.39998421       6.31090999       2.71029854
H       -3.61827106       4.73983499       5.48919526
H       -6.92763019       6.78441431       7.47130151
H       -5.67835435       7.48500490       9.75073861
H       -3.02387912       7.46384680       9.19509425
H       -2.49549154       7.04943980       5.34820425
O        4.89498287       1.32235754       5.29354886
C        4.20397277       0.64215901       4.54152033
C        4.20708009       0.74475450       3.09717785
C        4.77948744       1.78197669       2.37356275
C        4.48397864       1.59087061       1.01282984
C        3.77313391       0.41875380       0.92233937
N        3.58717201      -0.11250546       2.18661546
C        2.96653488      -1.37244477       2.45132196
C        3.58012858      -2.23539619       3.38455136
C        3.04969083      -3.50436567       3.69998615
C        1.90978469      -3.91550572       2.99588640
C        1.29176391      -3.07662666       2.06382332
C        1.79963786      -1.79963786       1.79963786
C        3.64158171      -4.33905859       4.77238318
C        2.83211891      -5.07760144       5.64879910
C        3.37959822      -5.79618043       6.71685733
C        4.75764559      -5.78613703       6.95569585
C        5.59741786      -5.07663349       6.08643100
C        5.02994324      -4.38344651       4.99350581
N        7.01661441      -5.03869615       6.22673058
C        7.82009143      -6.13220415       6.48934996
C        9.14084089      -5.76836976       6.36913507
C        9.16063581      -4.40443719       6.02600407
C        7.85182376      -3.94940046       5.98858348
C        7.44110012      -2.57761128       5.79082119
O        8.13537798      -1.71563515       5.26043907
Br       5.31101953      -6.60476261       8.58127147
H        3.51433912      -0.09673480       4.98073629
H        5.33051143       2.60883126       2.80785624
H        4.77461488       2.22370834       0.18369686
H        3.42715440      -0.10097940       0.03924240
H        4.50536632      -1.92713974       3.86763231
H        1.47132748      -4.89623076       3.17325711
H        0.38498043      -3.42373923       1.57106542
H        1.74890083      -5.07810512       5.53727028
H        2.70584039      -6.33039441       7.38495794
H        5.68186637      -3.89776280       4.26767215
H        7.39695109      -7.10936401       6.67703091
H        9.99380241      -6.42269066       6.49760479
H       10.03635187      -3.78711686       5.85935144
H        6.43208356      -2.31232783       6.14872419
C       -0.00445707       0.01189536      -1.78238275
H       -0.66409135       0.67374010      -2.43557963
H        0.65740317      -0.63156657      -2.45157240
C       -0.90989263      -0.90692880      -0.91072765
C        0.90977584       0.90977584      -0.90977584
C       -0.00465871       1.77757030       0.00794375
H       -0.66225468       2.44313916      -0.64384735
H        0.64322798       2.43503045       0.67728295
C       -1.78241447       0.00034974      -0.00472694
H       -2.45427497      -0.65498947       0.64260836
H       -2.43311707       0.67328779      -0.65473579
C       -0.91132561       0.90220522       0.91563759
C       -0.01476271      -0.02253852       1.78660255
H       -0.67934791      -0.69751639       2.42135241
H        0.63392994       0.61504881       2.47327442
C        0.01484550      -1.77751727      -0.01636693
H        0.67870853      -2.42144646      -0.68295456
H       -0.62264859      -2.45592969       0.64226336
C        1.78714474       0.01002794       0.00389507
H        2.44202412       0.67113390       0.66197326
H        2.45385902      -0.65136977      -0.64189061
C        0.91606151      -0.90478549       0.90901405
