173
Properties=species:S:1:pos:R:3 pbc="F F F"
C        0.00000000       0.00000000       0.00000000
O        6.97930241       4.03387673      -1.45579787
C        7.00212631       4.65662939      -2.51353115
C        6.16705748       4.42489274      -3.67394112
C        6.08135897       5.27916867      -4.76578970
C        5.06666959       4.81104233      -5.61765067
C        4.55359625       3.67818494      -5.03740872
N        5.23621897       3.39917754      -3.85761323
C        4.99317072       2.23983395      -3.09115284
S        6.38811971       1.31048097      -2.72835918
C        5.65969746      -0.03110133      -3.47231102
C        4.32909150       0.19324281      -3.80437120
C        3.88081158       1.40245534      -3.13157498
C        2.56873830       1.60436414      -2.37559983
C        1.83700120       0.44553615      -1.77596640
C        2.06441485      -1.01080944      -2.03341254
C        0.87934626       0.87934626      -0.87934626
S        0.73457429       2.54145120      -0.79263161
C        1.87128078       2.77418438      -2.03830699
N        2.00633329       4.13482517      -2.38387280
C        3.15684462       4.88604132      -2.25369114
C        2.94579911       6.15772057      -2.73326773
C        1.57382893       6.26712729      -2.99117170
C        0.98277685       5.04624683      -2.70840238
C       -0.44235358       4.78795313      -2.77459202
O       -1.29785130       5.67209002      -2.88268413
C        3.54662201      -0.70577232      -4.69769010
H        7.68644020       5.52017774      -2.60777617
H        6.66362550       6.18090087      -4.90532212
H        4.73043651       5.25531002      -6.54644273
H        3.77392385       3.01236160      -5.38678792
H        1.70681039      -1.25802857      -3.04001397
H        1.48702873      -1.67179346      -1.37453746
H        3.11161945      -1.29710706      -1.90385800
H        4.03107944       4.45356110      -1.80233389
H        3.68987796       6.94369817      -2.81122078
H        1.03934817       7.15324986      -3.31269002
H       -0.77716654       3.74133933      -2.73548284
H        2.55390528      -0.30327446      -4.91431177
H        3.45688730      -1.71845106      -4.28738469
H        4.06726576      -0.80359432      -5.66559254
C        6.39668435      -1.23807808      -3.74371005
C        7.01391087      -2.24892111      -3.97100675
Br       8.01191396      -3.88336880      -4.33852627
O       -6.85940905      -4.27397632      -1.33559164
C       -6.90265596      -4.85165214      -2.41797876
C       -6.13046624      -4.53404394      -3.60138115
C       -6.05707742      -5.33654468      -4.73269524
C       -5.10195983      -4.78812855      -5.60527421
C       -4.61222525      -3.65929269      -4.99767197
N       -5.25308426      -3.46118275      -3.77874273
C       -5.02573130      -2.32579341      -2.97263280
S       -6.44142145      -1.47546411      -2.51007430
C       -5.80433438      -0.07251787      -3.22405490
C       -4.48143936      -0.22332710      -3.62193905
C       -3.95282087      -1.43894590      -3.02307514
C       -2.60112256      -1.61438483      -2.33319488
C       -1.89337956      -0.45075318      -1.71437100
C       -2.19362192       1.00369083      -1.89708687
C       -0.87934626      -0.87934626      -0.87934626
S       -0.66042442      -2.53557682      -0.87265587
C       -1.84034866      -2.76538846      -2.07803503
N       -1.93269564      -4.11477794      -2.47755769
C       -3.04336418      -4.92112900      -2.33208390
C       -2.79998697      -6.16068512      -2.87611532
C       -1.43739753      -6.19808818      -3.19664221
C       -0.88676174      -4.96530556      -2.88535877
C        0.52177655      -4.64148502      -3.00048311
O        1.40840908      -5.48142313      -3.18390881
C       -3.77823880       0.74662646      -4.50692744
H       -7.55318993      -5.73991817      -2.52128601
H       -6.60614365      -6.25647377      -4.88723107
H       -4.78868770      -5.17720738      -6.56629418
H       -3.87779122      -2.94531209      -5.34997007
H       -1.89183184       1.30904595      -2.90600990
H       -1.61617160       1.66105688      -1.23465802
H       -3.24526198       1.23750422      -1.71061263
H       -3.91429638      -4.54740230      -1.82527575
H       -3.51274446      -6.97486909      -2.95718336
H       -0.88055727      -7.04518248      -3.57954830
H        0.81325033      -3.58365786      -2.92924811
H       -2.77991100       0.39811266      -4.78314424
H       -3.71347759       1.74395158      -4.05629492
H       -4.34497984       0.86227334      -5.44655748
C       -6.60321849       1.11102104      -3.41011888
C       -7.27228394       2.10223489      -3.56594746
Br      -8.35410618       3.70494384      -3.81790910
O       -3.84936466       1.55883323       7.06077912
C       -4.50663457       2.59568099       7.06997129
C       -4.34207240       3.73401836       6.18980058
C       -5.23533489       4.79364022       6.09734222
C       -4.83006279       5.62543960       5.03986020
C       -3.69561528       5.06565285       4.50792178
N       -3.35435874       3.91956275       5.21908826
C       -2.17824383       3.18381826       4.96209542
S       -1.19172611       2.89942083       6.33581292
C        0.09910654       3.66188682       5.53812687
C       -0.18003071       3.94095538       4.20571942
C       -1.37975403       3.21390805       3.82117983
C       -1.59887653       2.40752701       2.54229874
C       -0.44501834       1.82178950       1.79169590
C        1.00842143       2.13456817       1.96087122
C       -0.87934626       0.87934626       0.87934626
S       -2.54140279       0.73315208       0.79410224
C       -2.77885293       2.00843035       1.89648887
N       -4.14527973       2.31346018       2.06629136
C       -4.85339699       2.19784183       3.24533827
C       -6.14689898       2.62788976       3.06199867
C       -6.31006618       2.83525808       1.68680366
C       -5.10037285       2.57285400       1.06419921
C       -4.89148062       2.59900593      -0.37029497
O       -5.80643406       2.64881603      -1.19832723
C        0.66187420       4.83623085       3.36418314
H       -5.34991891       2.68469281       7.77978239
H       -6.12165576       4.92316338       6.70502934
H       -5.31646994       6.52715092       4.68856839
H       -3.06805426       5.41002465       3.69499446
H        1.20937870       3.13601288       1.56216162
H        1.67208264       1.47853320       1.38332218
H        1.33323833       2.05017961       3.00142911
H       -4.37730692       1.79093632       4.11873118
H       -6.91018022       2.70521068       3.82940601
H       -7.22370412       3.10910534       1.17247858
H       -3.85571800       2.58297152      -0.73903388
H        0.21981838       5.00562081       2.37914016
H        1.68441985       4.45663293       3.25360785
H        0.74379636       5.82396935       3.84909100
C        1.31973820       3.99772929       6.22432523
C        2.34201721       4.27899736       6.79901636
Br       3.99495591       4.73378404       7.72824331
O        3.12170590      -2.05911984       7.28815126
C        3.91401287      -2.99650719       7.26176679
C        4.02480004      -4.00898679       6.23210451
C        5.06474736      -4.92478615       6.13678383
C        4.91751551      -5.64097813       4.93686894
C        3.79002080      -5.15683071       4.32233840
N        3.20255926      -4.17567438       5.11477610
C        1.97473230      -3.56323182       4.78619340
S        0.79418223      -3.60324213       6.02953550
C       -0.26484521      -4.39890010       4.96685226
C        0.21524510      -4.44777025       3.66369016
C        1.33730139      -3.52937594       3.54816457
C        1.59674083      -2.52761870       2.42434275
C        0.47374857      -1.98917695       1.59557823
C       -0.92974069      -2.50169373       1.51506493
C        0.87934626      -0.87934626       0.87934626
S        2.50099675      -0.51636594       1.05129442
C        2.77883519      -1.89636692       2.00857004
N        4.14286916      -2.04972198       2.33244013
C        4.67459477      -2.01631743       3.60566488
C        6.02892257      -2.25107211       3.55679273
C        6.39024051      -2.23789257       2.20399485
C        5.24265069      -2.04216487       1.45261051
C        5.22016816      -1.88898260       0.01104081
O        6.22889482      -1.70551298      -0.67748494
C       -0.37855981      -5.31158231       2.60551728
H        4.66619821      -3.08013722       8.06805867
H        5.87771034      -5.02823800       6.84390015
H        5.56770917      -6.41549462       4.54898548
H        3.32441021      -5.45709114       3.39157203
H       -0.93428183      -3.45307661       0.97000102
H       -1.60305091      -1.85782101       0.93500263
H       -1.39047882      -2.60797903       2.50087018
H        4.04010406      -1.80092245       4.44594792
H        6.69370390      -2.34142717       4.40966585
H        7.39055799      -2.31937088       1.79535918
H        4.24688850      -1.94972860      -0.49696146
H        0.20250940      -5.28206635       1.68036683
H       -1.42298871      -5.05058957       2.39822008
H       -0.37837210      -6.36088326       2.94675283
C       -1.50092927      -4.97888430       5.42436129
C       -2.53614967      -5.46462107       5.80752511
Br      -4.21001350      -6.25001635       6.42706859
