194
Properties=species:S:1:pos:R:3 pbc="F F F"
O        7.88920644       4.94378075      -2.36570189
C        7.91203034       5.56653342      -3.42343517
C        7.07696150       5.33479676      -4.58384515
C        6.99126299       6.18907270      -5.67569373
C        5.97657361       5.72094635      -6.52755469
C        5.46350028       4.58808896      -5.94731274
N        6.14612300       4.30908157      -4.76751725
C        5.90307475       3.14973798      -4.00105686
S        7.29802374       2.22038499      -3.63826321
C        6.56960148       0.87880270      -4.38221504
C        5.23899553       1.10314684      -4.71427522
C        4.79071561       2.31235936      -4.04147901
C        3.47864232       2.51426817      -3.28550386
C        2.74690523       1.35544017      -2.68587043
C        2.97431888      -0.10090542      -2.94331657
C        1.78925028       1.78925028      -1.78925028
S        1.64447832       3.45135522      -1.70253564
C        2.78118480       3.68408840      -2.94821101
N        2.91623732       5.04472920      -3.29377683
C        4.06674864       5.79594534      -3.16359517
C        3.85570313       7.06762460      -3.64317175
C        2.48373295       7.17703132      -3.90107572
C        1.89268087       5.95615086      -3.61830641
C        0.46755044       5.69785716      -3.68449605
O       -0.38794727       6.58199405      -3.79258816
C        4.45652603       0.20413170      -5.60759412
H        8.59634423       6.43008176      -3.51768019
H        7.57352953       7.09080489      -5.81522614
H        5.64034053       6.16521404      -7.45634676
H        4.68382788       3.92226563      -6.29669194
H        2.61671442      -0.34812454      -3.94991799
H        2.39693276      -0.76188943      -2.28444148
H        4.02152347      -0.38720304      -2.81376202
H        4.94098346       5.36346513      -2.71223791
H        4.59978199       7.85360219      -3.72112481
H        1.94925220       8.06315388      -4.22259405
H        0.13273748       4.65124336      -3.64538686
H        3.46380930       0.60662957      -5.82421579
H        4.36679133      -0.80854704      -5.19728872
H        4.97716979       0.10630970      -6.57549657
C        7.30658837      -0.32817406      -4.65361408
C        7.92381490      -1.33901709      -4.88091077
Br       8.92181798      -2.97346477      -5.24843030
O       -8.25693009      -3.41525445      -3.52650454
C       -8.22629092      -4.32039406      -4.35531395
C       -7.11039260      -4.67926380      -5.20594701
C       -7.04651782      -5.83340142      -5.97611018
C       -5.76343062      -5.91920446      -6.54243958
C       -5.06727841      -4.81642091      -6.11520266
N       -5.88401038      -4.01939849      -5.31931294
C       -5.47116550      -2.76830653      -4.81439757
S       -6.53768292      -1.46810735      -5.15088167
C       -5.26214814      -0.65049701      -5.91797407
C       -4.03549619      -1.27926149      -5.74165991
C       -4.17294632      -2.27824912      -4.69335854
C       -3.21485288      -2.53259913      -3.53096234
C       -2.31452913      -1.45178764      -3.02189905
C       -1.99403227      -0.14539399      -3.67730377
C       -1.78925028      -1.78925028      -1.78925028
S       -2.21097908      -3.31943550      -1.26795459
C       -3.03144241      -3.66249335      -2.71954846
N       -3.51004530      -4.98861661      -2.75608143
C       -4.83691312      -5.36178961      -2.82758642
C       -4.93781380      -6.73171936      -2.89696632
C       -3.65396751      -7.24114552      -2.66672696
C       -2.78731422      -6.17175843      -2.50806549
C       -1.38224116      -6.29519561      -2.17246687
O       -0.85627859      -7.34384306      -1.78651328
C       -2.81703070      -0.92816572      -6.52305544
H       -9.10850951      -4.97949635      -4.45610032
H       -7.83668494      -6.56632123      -6.07655439
H       -5.37699804      -6.70471771      -7.18018558
H       -4.05563969      -4.50372457      -6.34342119
H       -1.34742054      -0.32711425      -4.54397308
H       -1.40917841       0.53479542      -3.04510182
H       -2.89283765       0.40771984      -3.96296465
H       -5.60674994      -4.61246082      -2.79747574
H       -5.85377887      -7.30026803      -3.02046209
H       -3.37214874      -8.28380872      -2.57904266
H       -0.74849191      -5.40286594      -2.27800986
H       -1.98478458      -1.60280072      -6.30706936
H       -2.50712070       0.11056142      -6.35897372
H       -3.03266884      -1.02552471      -7.60078251
C       -5.48553261       0.54402198      -6.69051776
C       -5.67261711       1.54443163      -7.33752311
Br      -5.97511691       3.16200943      -8.38367603
O       -3.86969716       3.10231850       8.22667342
C       -4.69179692       4.01357622       8.19662579
C       -4.86629316       4.98897296       7.14033729
C       -5.93722679       5.86885675       7.04994587
C       -5.84978907       6.55078927       5.82449632
C       -4.72693457       6.08229602       5.18967140
N       -4.08452257       5.14532683       5.99287241
C       -2.84856407       4.56082750       5.64447801
S       -1.63218599       4.67658651       6.84789943
C       -0.63214450       5.47031538       5.72815934
C       -1.15340929       5.46300111       4.44000718
C       -2.24877023       4.50731676       4.38846699
C       -2.51073217       3.46288339       3.30479878
C       -1.39724328       2.93320992       2.45776262
C       -0.01387191       3.48584907       2.31700906
C       -1.78925028       1.78925028       1.78925028
S       -3.39250333       1.38219199       2.02367386
C       -3.68442457       2.78268300       2.94637666
N       -5.04202905       2.90420353       3.30851076
C       -5.53300304       2.89488890       4.59839721
C       -6.89496234       3.08619610       4.58534104
C       -7.29712829       3.01897130       3.24574041
C       -6.16756405       2.83488990       2.46468420
C       -6.18459170       2.63678917       1.02852278
O       -7.20769126       2.40060892       0.37833476
C       -0.62016020       6.31064780       3.33744386
H       -5.42109563       4.09957730       9.02343325
H       -6.73092411       5.96964229       7.77899416
H       -6.53586613       7.29223244       5.43380277
H       -4.29994587       6.36704229       4.23579730
H       -0.05630425       4.41913961       1.74306401
H        0.66137269       2.84490755       1.73594994
H        0.47337084       3.63749785       3.28395545
H       -4.86644351       2.72589813       5.42434487
H       -7.53572285       3.18308331       5.45570283
H       -8.31162619       3.05662327       2.86675066
H       -5.22982070       2.71129370       0.48825330
H       -1.22818722       6.23391664       2.43255080
H        0.42515484       6.07546236       3.10522548
H       -0.64315749       7.36974910       3.64606947
C        0.59839625       6.10228419       6.12814046
C        1.62897413       6.63155806       6.46312465
Br       3.29533139       7.48734915       7.00476575
O        3.74496698      -3.21106703       8.24265507
C        4.58994749      -4.10109221       8.21095923
C        4.81419581      -5.04541675       7.13599086
C        5.90854374      -5.89655286       7.05093282
C        5.86782467      -6.54973791       5.80751208
C        4.74939840      -6.09297924       5.15652434
N        4.06460903      -5.19211611       5.96599667
C        2.82331778      -4.62928291       5.60126890
S        1.58136687      -4.80437884       6.77092622
C        0.62880944      -5.59405102       5.60775876
C        1.18081623      -5.54208533       4.33351603
C        2.25301443      -4.55913348       4.33240606
C        2.51513999      -3.48204445       3.28122990
C        1.40969934      -2.95864116       2.41987532
C        0.04431052      -3.54099606       2.23142345
C        1.78925028      -1.78925028       1.78925028
S        3.37573481      -1.34938426       2.07325011
C        3.67991113      -2.76488379       2.96868930
N        5.03093521      -2.86240893       3.36139921
C        5.49010141      -2.87325171       4.66293603
C        6.85631061      -3.03109106       4.67909782
C        7.28904904      -2.92086048       3.35193048
C        6.17453184      -2.74487050       2.54773580
C        6.22145316      -2.51078279       1.11766769
O        7.25383312      -2.23377506       0.49902675
C        0.69569318      -6.37474984       3.19780884
H        5.30089343      -4.18990467       9.05330808
H        6.68658759      -5.99614952       7.79682345
H        6.58138984      -7.26438626       5.41612524
H        4.35287590      -6.36420138       4.18570817
H        0.12383111      -4.45843027       1.63624649
H       -0.63236555      -2.90237469       1.64947567
H       -0.46231818      -3.72840112       3.18199952
H        4.79971433      -2.74105478       5.47591739
H        7.47798609      -3.13401264       5.56251026
H        8.31306154      -2.92446863       2.99746995
H        5.28221137      -2.59496838       0.55218795
H        1.32339047      -6.26083040       2.31043380
H       -0.34920524      -6.15928407       2.94545417
H        0.73751461      -7.44032514       3.48113630
C       -0.59498231      -6.26542065       5.96159005
C       -1.61990790      -6.82769272       6.25792376
Br      -3.27712589      -7.73683909       6.73707031
C       -0.00445707       0.01189536      -1.78238275
H       -0.66409135       0.67374010      -2.43557963
H        0.65740317      -0.63156657      -2.45157240
C       -0.90989263      -0.90692880      -0.91072765
C        0.90977584       0.90977584      -0.90977584
C       -0.00465871       1.77757030       0.00794375
H       -0.66225468       2.44313916      -0.64384735
H        0.64322798       2.43503045       0.67728295
C       -1.78241447       0.00034974      -0.00472694
H       -2.45427497      -0.65498947       0.64260836
H       -2.43311707       0.67328779      -0.65473579
C       -0.91132561       0.90220522       0.91563759
C       -0.01476271      -0.02253852       1.78660255
H       -0.67934791      -0.69751639       2.42135241
H        0.63392994       0.61504881       2.47327442
C        0.01484550      -1.77751727      -0.01636693
H        0.67870853      -2.42144646      -0.68295456
H       -0.62264859      -2.45592969       0.64226336
C        1.78714474       0.01002794       0.00389507
H        2.44202412       0.67113390       0.66197326
H        2.45385902      -0.65136977      -0.64189061
C        0.91606151      -0.90478549       0.90901405
