186
Properties=species:S:1:pos:R:3 pbc="F F F"
O        7.88920644       4.94378075      -2.36570189
C        7.91203034       5.56653342      -3.42343517
C        7.07696150       5.33479676      -4.58384515
C        6.99126299       6.18907270      -5.67569373
C        5.97657361       5.72094635      -6.52755469
C        5.46350028       4.58808896      -5.94731274
N        6.14612300       4.30908157      -4.76751725
C        5.90307475       3.14973798      -4.00105686
S        7.29802374       2.22038499      -3.63826321
C        6.56960148       0.87880270      -4.38221504
C        5.23899553       1.10314684      -4.71427522
C        4.79071561       2.31235936      -4.04147901
C        3.47864232       2.51426817      -3.28550386
C        2.74690523       1.35544017      -2.68587043
C        2.97431888      -0.10090542      -2.94331657
C        1.78925028       1.78925028      -1.78925028
S        1.64447832       3.45135522      -1.70253564
C        2.78118480       3.68408840      -2.94821101
N        2.91623732       5.04472920      -3.29377683
C        4.06674864       5.79594534      -3.16359517
C        3.85570313       7.06762460      -3.64317175
C        2.48373295       7.17703132      -3.90107572
C        1.89268087       5.95615086      -3.61830641
C        0.46755044       5.69785716      -3.68449605
O       -0.38794727       6.58199405      -3.79258816
C        4.45652603       0.20413170      -5.60759412
Br       7.52908679      -0.69256374      -4.73555021
H        8.59634423       6.43008176      -3.51768019
H        7.57352953       7.09080489      -5.81522614
H        5.64034053       6.16521404      -7.45634676
H        4.68382788       3.92226563      -6.29669194
H        2.61671442      -0.34812454      -3.94991799
H        2.39693276      -0.76188943      -2.28444148
H        4.02152347      -0.38720304      -2.81376202
H        4.94098346       5.36346513      -2.71223791
H        4.59978199       7.85360219      -3.72112481
H        1.94925220       8.06315388      -4.22259405
H        0.13273748       4.65124336      -3.64538686
H        3.46380930       0.60662957      -5.82421579
H        4.36679133      -0.80854704      -5.19728872
H        4.97716979       0.10630970      -6.57549657
O       -8.23272983      -3.82718679      -3.13877245
C       -8.20200248      -4.65709180      -4.04290464
C       -7.13916341      -4.84847678      -5.00796322
C       -7.05043531      -5.92743628      -5.87815782
C       -5.81869002      -5.85585521      -6.55052943
C       -5.17840967      -4.73442413      -6.08606818
N       -5.98395114      -4.07757377      -5.16119691
C       -5.63009770      -2.83970414      -4.58406774
S       -6.82231434      -1.61440659      -4.71995101
C       -5.68772046      -0.63034309      -5.51255567
C       -4.40407305      -1.16218352      -5.49016102
C       -4.36960594      -2.24991130      -4.52503674
C       -3.29685487      -2.51210788      -3.46945160
C       -2.44496313      -1.40128887      -2.94196382
C       -2.28808296      -0.02379654      -3.50485053
C       -1.78925028      -1.78925028      -1.78925028
S       -2.04042482      -3.38704924      -1.37089512
C       -2.95389903      -3.68300588      -2.77657932
N       -3.32634347      -5.03853122      -2.88986865
C       -4.62031969      -5.51870620      -2.88726326
C       -4.61705802      -6.88227768      -3.06716378
C       -3.28146704      -7.29495326      -2.98541969
C       -2.49255301      -6.17040064      -2.80418449
C       -1.05827461      -6.19767121      -2.59395782
O       -0.41863604      -7.22411380      -2.34388509
C       -3.29010789      -0.64518826      -6.33295572
Br      -6.18821961       0.96903112      -6.35288478
H       -9.03413316      -5.38020811      -4.12976491
H       -7.78522912      -6.71588024      -5.97845120
H       -5.42761227      -6.55131629      -7.28297277
H       -4.21867505      -4.31774714      -6.36636326
H       -1.70679947      -0.07877858      -4.43292981
H       -1.70673311       0.65194183      -2.86469352
H       -3.24963522       0.47015703      -3.66860426
H       -5.44204148      -4.84393766      -2.73070736
H       -5.49191011      -7.51659201      -3.16600687
H       -2.91066730      -8.31283557      -3.01149725
H       -0.50944851      -5.24806510      -2.67185410
H       -2.39099304      -1.26002952      -6.24363210
H       -3.05112098       0.40009527      -6.10450730
H       -3.59012920      -0.67447525      -7.39437160
O       -3.11284422       3.85734817       8.22849669
C       -4.07268032       4.62245483       8.20686378
C       -4.55963594       5.36999979       7.06596768
C       -5.76548890       6.05849999       7.03204053
C       -5.97182923       6.52903635       5.72420907
C       -4.88923825       6.12665338       4.98301036
N       -3.98896099       5.44119369       5.79256714
C       -2.73525771       4.99035840       5.32825347
S       -1.39551642       5.48160186       6.27955366
C       -0.71567494       6.21038204       4.90456224
C       -1.40815151       5.91063847       3.73762760
C       -2.32220198       4.81238980       4.00996220
C       -2.55723446       3.57325729       3.14792260
C       -1.50399272       3.07402897       2.21019413
C       -0.26872278       3.78826764       1.75973961
C       -1.78925028       1.78925028       1.78925028
S       -3.25002226       1.20112818       2.34721874
C       -3.63837186       2.68051359       3.09459877
N       -4.93051247       2.66472361       3.65950726
C       -5.22197400       2.80282110       5.00149405
C       -6.58416125       2.79108093       5.19125730
C       -7.15779675       2.44137699       3.96266626
C       -6.13775238       2.29258092       3.03680484
C       -6.32765007       1.85440121       1.66785237
O       -7.37894846       1.36700555       1.24068093
C       -1.19009584       6.62769231       2.45046371
Br       0.78242123       7.33121391       5.02328059
H       -4.67928840       4.74096718       9.12385060
H       -6.45146045       6.16564558       7.86245453
H       -6.82227258       7.08723226       5.35239649
H       -4.65831352       6.30466002       3.93981192
H       -0.55035654       4.59523652       1.07291480
H        0.41428723       3.16237863       1.17139340
H        0.31996036       4.16959684       2.59844598
H       -4.42458827       2.87350687       5.71859136
H       -7.10000750       2.94031047       6.13419102
H       -8.20791578       2.26802866       3.75905568
H       -5.48705092       1.97324783       0.96906896
H       -1.90027146       6.31250485       1.68187835
H       -0.16455602       6.50963657       2.08134042
H       -1.34697126       7.70919872       2.60280607
O        3.21253344      -3.74332704       8.24282860
C        4.15439634      -4.53033554       8.21726704
C        4.59857785      -5.31391194       7.08311362
C        5.78775587      -6.03021534       7.03805820
C        5.95382480      -6.53425590       5.73699396
C        4.86387936      -6.12394533       5.01107729
N        3.99767761      -5.40039288       5.82465132
C        2.74407354      -4.93161572       5.37818032
S        1.41570945      -5.37103864       6.36992385
C        0.68878125      -6.11455037       5.02728760
C        1.36105403      -5.85661503       3.83874853
C        2.30522821      -4.77363838       4.06568740
C        2.54808386      -3.55962196       3.17070852
C        1.48515909      -3.05754773       2.24550900
C        0.22441160      -3.75336709       1.83895134
C        1.78925028      -1.78925028       1.78925028
S        3.27502697      -1.22221879       2.30112342
C        3.64729624      -2.69307731       3.07311067
N        4.95196994      -2.69410342       3.60866999
C        5.27070659      -2.80894075       4.94664181
C        6.63677822      -2.82394001       5.10578126
C        7.18997897      -2.51473914       3.85712188
C        6.15271951      -2.36341081       2.95100782
C        6.32115271      -1.96017842       1.56857252
O        7.37304238      -1.50640426       1.10718829
C        1.09793440      -6.59694709       2.57337037
Br      -0.83076059      -7.19814188       5.20469197
H        4.77889942      -4.64219926       9.12300750
H        6.48986791      -6.13444442       7.85524823
H        6.78299062      -7.11975203       5.35915869
H        4.60541514      -6.31979028       3.97758003
H        0.47237140      -4.58158518       1.16455129
H       -0.45771659      -3.12534627       1.25185512
H       -0.35339001      -4.10249673       2.69897573
H        4.48844581      -2.84554363       5.68269706
H        7.17047242      -2.96386686       6.04016971
H        8.23879260      -2.36986048       3.62634704
H        5.46246137      -2.07539006       0.89151627
H        1.79729094      -6.31512837       1.78223535
H        0.06714855      -6.46385066       2.22453380
H        1.23416599      -7.67808727       2.74672280
C       -0.00445707       0.01189536      -1.78238275
H       -0.66409135       0.67374010      -2.43557963
H        0.65740317      -0.63156657      -2.45157240
C       -0.90989263      -0.90692880      -0.91072765
C        0.90977584       0.90977584      -0.90977584
C       -0.00465871       1.77757030       0.00794375
H       -0.66225468       2.44313916      -0.64384735
H        0.64322798       2.43503045       0.67728295
C       -1.78241447       0.00034974      -0.00472694
H       -2.45427497      -0.65498947       0.64260836
H       -2.43311707       0.67328779      -0.65473579
C       -0.91132561       0.90220522       0.91563759
C       -0.01476271      -0.02253852       1.78660255
H       -0.67934791      -0.69751639       2.42135241
H        0.63392994       0.61504881       2.47327442
C        0.01484550      -1.77751727      -0.01636693
H        0.67870853      -2.42144646      -0.68295456
H       -0.62264859      -2.45592969       0.64226336
C        1.78714474       0.01002794       0.00389507
H        2.44202412       0.67113390       0.66197326
H        2.45385902      -0.65136977      -0.64189061
C        0.91606151      -0.90478549       0.90901405
