189
Properties=species:S:1:pos:R:3 pbc="F F F"
C        0.00000000       0.00000000       0.00000000
O       10.33989356       5.58442406      -8.51034937
C        9.56303158       4.65474470      -8.29990095
C        9.29624463       4.09874799      -6.99073472
C        9.63709243       4.71903940      -5.79625441
C        9.08494236       3.98054879      -4.74060511
C        8.44924936       2.90294205      -5.30585064
N        8.60356025       2.91907359      -6.68737463
C        8.15512058       1.89134938      -7.54657314
S        9.07615097       1.53183212      -8.93208270
C        8.04711555       0.26350455      -9.36450810
C        7.00591774       0.06241207      -8.48171495
C        7.08930701       1.01817934      -7.39582291
C        6.11912961       1.07729312      -6.33847687
C        5.30266700       1.12472414      -5.46079594
C        4.26346066       1.21583125      -4.33930022
C        3.43468946       1.34055470      -3.48083925
C        2.42877199       1.51537305      -2.47090514
C        1.76064957       0.40386620      -1.82389257
C        1.99387511      -1.04448347      -2.13017917
C        0.87593954       0.87593954      -0.87593954
S        0.83522238       2.56043156      -0.75605434
C        2.02619913       2.73927936      -1.95922860
N        2.38554820       4.04551135      -2.36132708
C        2.75276552       4.39141503      -3.65688858
C        2.91829910       5.75033454      -3.76119414
C        2.67789370       6.28207404      -2.48678192
C        2.41110747       5.23284684      -1.61800377
C        2.26671237       5.37899384      -0.18572857
O        2.06872413       6.45046029       0.38343624
C        5.94639953      -0.98710027      -8.63137100
H        8.99492650       4.24477095      -9.14695684
H       10.19144948       5.64803044      -5.71899740
H        9.14652111       4.20069452      -3.68232393
H        7.95636785       2.07941052      -4.81145721
H        2.71881120      -1.18917091      -2.93577975
H        1.05982873      -1.52461108      -2.44056363
H        2.37715926      -1.56303237      -1.24495709
H        2.79648767       3.64992661      -4.43996172
H        3.17572374       6.29327531      -4.66190632
H        2.74065762       7.32493497      -2.19555528
H        2.38969855       4.47224808       0.42555715
H        5.20004188      -0.94374230      -7.83339297
H        6.39420256      -1.98614465      -8.60960748
H        5.41559498      -0.86073091      -9.58104511
C        8.27204014      -0.51264746     -10.55639609
C        8.46041449      -1.16267477     -11.55460228
Br       8.76499989      -2.21371396     -13.16861726
O      -10.85925851      -6.31027140      -7.26513707
C      -10.27914900      -5.26636135      -6.97216688
C       -9.77578236      -4.95936852      -5.65057645
C       -9.61296534      -5.89845900      -4.64096190
C       -8.95680290      -5.28341570      -3.56587766
C       -8.76421495      -3.97162730      -3.92219981
N       -9.30237141      -3.72714592      -5.18049114
C       -9.35799073      -2.45110396      -5.78394841
S      -10.69453556      -2.07645588      -6.76907434
C      -10.13905680      -0.50285145      -7.03321994
C       -8.95864307      -0.20978985      -6.38161184
C       -8.51333537      -1.36350706      -5.62646682
C       -7.29159158      -1.37181953      -4.87148849
C       -6.26742664      -1.37398485      -4.24677558
C       -4.95583256      -1.40634878      -3.45641079
C       -3.90872570      -1.47277789      -2.87457983
C       -2.64186968      -1.56820360      -2.20497690
C       -2.07737904      -0.48219724      -1.42883206
C       -2.70162137       0.86789945      -1.24584889
C       -0.87593954      -0.87593954      -0.87593954
S       -0.43284654      -2.46055561      -1.25830613
C       -1.85002162      -2.70553281      -2.16915266
N       -2.01335258      -3.93798213      -2.84105191
C       -2.65262725      -4.08108356      -4.06735832
C       -2.53796186      -5.37233784      -4.51952807
C       -1.82987222      -6.07907931      -3.53779812
C       -1.56185934      -5.21549739      -2.48460135
C       -0.98262388      -5.62524616      -1.22356473
O       -0.39843346      -6.69206949      -1.04524523
C       -8.24517192       1.10644145      -6.45193979
H      -10.08382613      -4.53427729      -7.76855087
H       -9.90298845      -6.94094499      -4.71454388
H       -8.66096873      -5.73916872      -2.62940211
H       -8.34364656      -3.17090879      -3.33268024
H       -3.64112106       0.97121011      -1.79550909
H       -2.02610783       1.65268400      -1.60235745
H       -2.91798752       1.04604145      -0.18713791
H       -3.08204588      -3.23031072      -4.57401940
H       -2.91783834      -5.75433274      -5.45873429
H       -1.57504719      -7.13318888      -3.55291181
H       -1.12069426      -4.95006242      -0.36563280
H       -7.31019661       1.10541764      -5.88491357
H       -8.87606808       1.90380442      -6.04540173
H       -7.99616367       1.35048250      -7.49022802
C      -10.86272561       0.41798715      -7.87105031
C      -11.46879823       1.18918948      -8.57273324
Br     -12.44876641       2.43615842      -9.70729520
O       -8.38691316       5.63434522      10.41340861
C       -7.34891990       5.03934882      10.12940852
C       -7.25879365       3.99033724       9.13659644
C       -8.23566051       3.73247333       8.18425239
C       -7.74399311       2.76589220       7.29621094
C       -6.49182376       2.42330037       7.74291792
N       -6.18313620       3.12300213       8.90387014
C       -5.01118103       2.91673496       9.66512712
S       -5.10262432       3.08057535      11.35686611
C       -3.48239794       2.64239927      11.55033099
C       -2.83850617       2.34468819      10.36685039
C       -3.75765722       2.48955830       9.25609373
C       -3.36349282       2.28046233       7.89094445
C       -3.02669382       2.10914513       6.75234813
C       -2.61577197       1.91287571       5.28994446
C       -2.30439563       1.81634238       4.13534541
C       -1.92878997       1.73462004       2.75164017
C       -1.01775640       0.72989088       2.24076106
C       -0.33194063      -0.31722403       3.06485420
C       -0.87593954       0.87593954       0.87593954
S       -1.77944739       2.14654194       0.22571896
C       -2.42734197       2.54996084       1.74740428
N       -3.27757921       3.67495260       1.83985481
C       -3.33888667       4.52002415       2.94215830
C       -4.15962405       5.58919801       2.68100571
C       -4.65865988       5.40370405       1.38438573
C       -4.16603445       4.20234987       0.89357376
C       -4.58505817       3.59977827      -0.35340166
O       -5.18114320       4.19998414      -1.24537916
C       -1.40065879       1.93720795      10.25280352
H       -6.41604186       5.34923161      10.62138082
H       -9.19000923       4.24425331       8.12421477
H       -8.24536966       2.35526744       6.42890246
H       -5.82326806       1.67020508       7.35376244
H       -0.56799042      -0.23156873       4.12899834
H        0.75512677      -0.23218187       2.96308992
H       -0.63725823      -1.31726146       2.73908720
H       -2.72969843       4.34160634       3.81507124
H       -4.36504832       6.41333324       3.35252382
H       -5.35588871       6.04680513       0.85845403
H       -4.39243202       2.52371452      -0.47975707
H       -1.09140105       1.78291336       9.21537813
H       -1.22664254       0.99973896      10.79128389
H       -0.75022167       2.71070836      10.67497915
C       -2.86719014       2.59708883      12.85150980
C       -2.35195360       2.55914133      13.94124707
Br      -1.51885969       2.49778345      15.70326005
O        5.37623791      -9.46049873       9.59793035
C        4.58146194      -9.25347942       8.68273586
C        3.80193036      -8.04246343       8.54133354
C        4.06239405      -6.86337035       9.22662184
C        3.21795177      -5.86367200       8.72447249
C        2.43148533      -6.45777878       7.76877794
N        2.73154019      -7.81140427       7.66706401
C        2.02507639      -8.71999409       6.84797262
S        1.82626645     -10.31986493       7.39393441
C        0.89929687     -10.73275275       6.04307857
C        0.69765873      -9.68925001       5.16313602
C        1.35079371      -8.49429652       5.65821903
C        1.34554404      -7.25224277       4.93711280
C        1.34165903      -6.21901718       4.32751087
C        1.36512819      -4.89410276       3.55936119
C        1.44179164      -3.86232232       2.95196946
C        1.56451293      -2.63634272       2.21419453
C        0.47700858      -2.06960878       1.44179098
C       -0.88189476      -2.68066274       1.28080283
C        0.87593954      -0.87593954       0.87593954
S        2.46771052      -0.44356136       1.24043640
C        2.69319868      -1.83155069       2.19995772
N        3.96806296      -2.05840006       2.76592360
C        4.52513727      -3.31761890       2.95831296
C        5.81845437      -3.20604268       3.40533072
C        6.08254318      -1.83505953       3.52914694
C        4.93090041      -1.13566176       3.19539592
C        4.77277929       0.29398598       3.35264147
O        5.70515003       1.07952557       3.51012372
C       -0.07843980      -9.78465350       3.88445655
H        4.48513129     -10.01022764       7.89129535
H        4.83209920      -6.74489113       9.98148699
H        3.17760313      -4.82490190       9.02703453
H        1.62194577      -6.02400045       7.20128937
H       -0.97061370      -3.64201421       1.79401952
H       -1.09986838      -2.85397564       0.22167403
H       -1.64863209      -2.01557925       1.69213681
H        3.98513383      -4.21242954       2.68881263
H        6.49470589      -4.02658249       3.60961700
H        7.00274487      -1.37970105       3.87870195
H        3.74438044       0.68487210       3.37688114
H       -0.08100839      -8.84429841       3.32640252
H       -1.12110531     -10.04819739       4.09057330
H        0.35473092     -10.54980223       3.23137603
C        0.38553656     -12.06604076       5.86421145
C       -0.04473769     -13.18266946       5.71441023
Br      -0.74045477     -14.98816363       5.47219432
