134
Properties=species:S:1:pos:R:3 pbc="F F F"
C        0.84508428      -0.00046237      -4.35637569
C        2.18943335       0.16933014      -3.66513636
N        2.33627782       1.45895579      -2.99960449
C        1.78101183       1.78101183      -1.78101183
C        2.15764707       3.05638226      -1.43860305
C        2.99254534       3.51119982      -2.47342660
C        3.11550833       2.52583105      -3.43763626
C        3.93695998       2.52253972      -4.65285497
C        5.33318978       2.47494841      -4.52544163
C        6.15329198       2.45940489      -5.65742828
C        5.58456180       2.47780616      -6.92962700
C        4.19890840       2.53294136      -7.07116298
C        3.38519849       2.57546903      -5.93980206
O        2.04221680       2.69463813      -6.16161562
H        0.78466594      -0.98578979      -4.82665876
H        0.69277887       0.75388523      -5.13282561
H        0.01052593       0.08606441      -3.65309811
H        3.00103691       0.05046601      -4.38757851
H        2.33225952      -0.60809668      -2.90705206
H        1.87944759       3.58606078      -0.53630308
H        5.79375051       2.45587081      -3.53955783
H        7.23422414       2.43403025      -5.54431007
H        6.22073339       2.46179605      -7.81273800
H        3.75270876       2.56320864      -8.06107082
H        1.63230028       2.99302497      -5.33091811
C        3.60714796       4.81339291      -2.46090507
C        4.12187765       5.90397962      -2.45041829
Br       4.95415202       7.66736609      -2.43346204
C       -2.45249478      -3.59914605       0.85064323
C       -1.69228677      -3.89933548      -0.43227759
N       -2.13444549      -3.09468501      -1.56570761
C       -1.78101183      -1.78101183      -1.78101183
C       -2.33960556      -1.35288483      -2.96014198
C       -3.03219896      -2.45474632      -3.49022650
C       -2.90222872      -3.53810944      -2.63863749
C       -3.38976035      -4.91063341      -2.81196090
C       -2.81295711      -5.71268962      -3.80793309
C       -3.24008458      -7.02980142      -4.00023914
C       -4.23997755      -7.56304271      -3.18897470
C       -4.82744597      -6.77506732      -2.20049945
C       -4.41759833      -5.45345227      -2.02941898
O       -5.08638121      -4.72755038      -1.08453896
H       -2.07351099      -4.21950105       1.66747713
H       -3.52158144      -3.80021446       0.74230619
H       -2.34914650      -2.55140517       1.15086321
H       -1.79249725      -4.95690542      -0.68967876
H       -0.62161092      -3.71291579      -0.29668819
H       -2.23893093      -0.36695527      -3.39592525
H       -2.02812223      -5.31349508      -4.44756184
H       -2.79253162      -7.63673216      -4.78330068
H       -4.57166488      -8.58959218      -3.33401038
H       -5.61792226      -7.18239362      -1.57667234
H       -4.91141186      -3.78617239      -1.25865911
C       -3.73769487      -2.39940616      -4.74434491
C       -4.32854769      -2.35305879      -5.79466908
Br      -5.28390673      -2.27811900      -7.49295443
C       -2.63716464       3.45572877      -0.89189581
C       -1.83848478       3.84151280       0.34390227
N       -2.19889600       3.06864856       1.52729355
C       -1.78101183       1.78101183       1.78101183
C       -2.27189527       1.38118526       2.99955184
C       -2.98867892       2.47536975       3.51312309
C       -2.94026884       3.52570648       2.61300033
C       -3.47858211       4.88322221       2.75055034
C       -2.89624626       5.75017782       3.68715574
C       -3.37111046       7.05567094       3.84334374
C       -4.42537024       7.51220261       3.05442211
C       -5.01864753       6.65918619       2.12517902
C       -4.55996872       5.34939707       1.99110379
O       -5.23528509       4.55687334       1.10631212
H       -2.31893253       4.05558147      -1.74897908
H       -3.70852975       3.61719785      -0.74623790
H       -2.50147035       2.40122266      -1.15300456
H       -1.97322513       4.90412650       0.56172980
H       -0.76727897       3.69356529       0.17037065
H       -2.11130502       0.41977835       3.47072808
H       -2.06944939       5.41128212       4.30844765
H       -2.91818394       7.71342502       4.58095550
H       -4.79446438       8.52953889       3.17126417
H       -5.85077537       7.00664420       1.51956864
H       -5.01317858       3.63178804       1.31127673
C       -3.63908595       2.44485397       4.79750601
C       -4.18380184       2.41929701       5.87317671
Br      -5.06456135       2.37797356       7.61244525
C        0.20174715      -0.60816780       4.39108265
C        1.64033004      -0.46595310       3.91761671
N        2.09459861      -1.59153416       3.10870533
C        1.78101183      -1.78101183       1.78101183
C        2.41087354      -2.91394999       1.32780884
C        3.15356579      -3.41156318       2.41204280
C        2.97074689      -2.59422777       3.51400099
C        3.59784300      -2.67709315       4.83741851
C        4.97006632      -2.40981335       4.95370016
C        5.60568869      -2.46698445       6.19745201
C        4.87218996      -2.77920934       7.34059567
C        3.50952855      -3.05470116       7.23878303
C        2.88457019      -3.02304365       5.99285575
O        1.56278320      -3.36834172       5.96734563
H       -0.08936551       0.26561934       4.98051976
H        0.06852113      -1.49577790       5.01519068
H       -0.49735527      -0.69408294       3.55296078
H        2.30888784      -0.35498273       4.77521085
H        1.75782073       0.43974063       3.31313479
H        2.35712087      -3.31932102       0.32536956
H        5.55702070      -2.16032363       4.07183483
H        6.67202472      -2.26882627       6.27171347
H        5.36387960      -2.82054030       8.31084754
H        2.93788145      -3.31372763       8.12537913
H        1.33158720      -3.57890489       5.04575127
C        3.97290770      -4.59189286       2.31664537
C        4.65910656      -5.58041897       2.23675003
Br       5.76863207      -7.17878208       2.10756601
C       -0.00445707       0.01189536      -1.78238275
H       -0.66409135       0.67374010      -2.43557963
H        0.65740317      -0.63156657      -2.45157240
C       -0.90989263      -0.90692880      -0.91072765
C        0.90977584       0.90977584      -0.90977584
C       -0.00465871       1.77757030       0.00794375
H       -0.66225468       2.44313916      -0.64384735
H        0.64322798       2.43503045       0.67728295
C       -1.78241447       0.00034974      -0.00472694
H       -2.45427497      -0.65498947       0.64260836
H       -2.43311707       0.67328779      -0.65473579
C       -0.91132561       0.90220522       0.91563759
C       -0.01476271      -0.02253852       1.78660255
H       -0.67934791      -0.69751639       2.42135241
H        0.63392994       0.61504881       2.47327442
C        0.01484550      -1.77751727      -0.01636693
H        0.67870853      -2.42144646      -0.68295456
H       -0.62264859      -2.45592969       0.64226336
C        1.78714474       0.01002794       0.00389507
H        2.44202412       0.67113390       0.66197326
H        2.45385902      -0.65136977      -0.64189061
C        0.91606151      -0.90478549       0.90901405
