126
Properties=species:S:1:pos:R:3 pbc="F F F"
C        0.84508428      -0.00046237      -4.35637569
C        2.18943335       0.16933014      -3.66513636
N        2.33627782       1.45895579      -2.99960449
C        1.78101183       1.78101183      -1.78101183
C        2.15764707       3.05638226      -1.43860305
C        2.99254534       3.51119982      -2.47342660
Br       3.79449940       5.21034494      -2.45708809
C        3.11550833       2.52583105      -3.43763626
C        3.93695998       2.52253972      -4.65285497
C        5.33318978       2.47494841      -4.52544163
C        6.15329198       2.45940489      -5.65742828
C        5.58456180       2.47780616      -6.92962700
C        4.19890840       2.53294136      -7.07116298
C        3.38519849       2.57546903      -5.93980206
O        2.04221680       2.69463813      -6.16161562
H        0.78466594      -0.98578979      -4.82665876
H        0.69277887       0.75388523      -5.13282561
H        0.01052593       0.08606441      -3.65309811
H        3.00103691       0.05046601      -4.38757851
H        2.33225952      -0.60809668      -2.90705206
H        1.87944759       3.58606078      -0.53630308
H        5.79375051       2.45587081      -3.53955783
H        7.23422414       2.43403025      -5.54431007
H        6.22073339       2.46179605      -7.81273800
H        3.75270876       2.56320864      -8.06107082
H        1.63230028       2.99302497      -5.33091811
C       -2.66383934      -3.43393716       0.89677890
C       -1.85999505      -3.83222130      -0.33168350
N       -2.20837483      -3.06447450      -1.52198878
C       -1.78101183      -1.78101183      -1.78101183
C       -2.26194369      -1.38570575      -3.00498293
C       -2.98229981      -2.47862295      -3.51624901
Br      -3.82042453      -2.44393935      -5.19756855
C       -2.94588434      -3.52366638      -2.60942493
C       -3.49170495      -4.87867998      -2.74196973
C       -2.90899703      -5.75494683      -3.66963596
C       -3.39093596      -7.05844356      -3.82074562
C       -4.45280573      -7.50363250      -3.03555673
C       -5.04649551      -6.64128266      -2.11523457
C       -4.58057935      -5.33352726      -1.98636297
O       -5.25640570      -4.53143916      -1.11062569
H       -2.35457054      -4.03043253       1.75946815
H       -3.73526696      -3.58973259       0.74550984
H       -2.52324811      -2.37869244       1.15225211
H       -1.99994761      -4.89531226      -0.54382155
H       -0.78898092      -3.68977408      -0.15245990
H       -2.09254381      -0.42822466      -3.48104297
H       -2.07633423      -5.42496181      -4.28788312
H       -2.93756202      -7.72349669      -4.55150575
H       -4.82744291      -8.51938886      -3.14843567
H       -5.88444577      -6.97989369      -1.51264875
H       -5.02734729      -3.60901380      -1.31988227
C       -2.75406155       3.35813121      -0.91119515
C       -1.93351610       3.79896089       0.29142286
N       -2.24076563       3.04954983       1.50452264
C       -1.78101183       1.78101183       1.78101183
C       -2.22795024       1.40184004       3.02284210
C       -2.96054239       2.49016162       3.52646776
Br      -3.76266763       2.47373359       5.22553120
C       -2.96511355       3.51628087       2.59758123
C       -3.53666242       4.86217901       2.71351324
C       -2.95352979       5.76981604       3.61023399
C       -3.45974788       7.06593931       3.74443795
C       -4.54688255       7.47225138       2.97286104
C       -5.14113474       6.57845295       2.08342505
C       -4.65038056       5.27821167       1.97187735
O       -5.32708507       4.44388871       1.12749678
H       -2.47547650       3.94249825      -1.79243984
H       -3.82518016       3.49482690      -0.74051735
H       -2.59646867       2.30085411      -1.14763432
H       -2.09153631       4.86317556       0.48436956
H       -0.86367391       3.67500645       0.09253454
H       -2.02845062       0.45838625       3.51497458
H       -2.10140781       5.47036172       4.21740962
H       -3.00550242       7.75559786       4.45146418
H       -4.94054095       8.48217764       3.07254886
H       -5.99839964       6.88675168       1.49183690
H       -5.07423364       3.53105855       1.35095117
C        0.49126534      -0.31035566       4.39937661
C        1.89616976      -0.31158395       3.81614613
N        2.20712316      -1.52268424       3.06503071
C        1.78101183      -1.78101183       1.78101183
C        2.29311050      -2.98766590       1.37185597
C        3.07903835      -3.46249874       2.43563467
Br       4.02424723      -5.08431974       2.35336546
C        3.03857850      -2.55792182       3.48247533
C        3.75696697      -2.59458375       4.76080395
C        5.14948845      -2.42476485       4.75932651
C        5.87211942      -2.44214021       5.95586552
C        5.20736758      -2.61630395       7.16832343
C        3.82487596      -2.79399587       7.18414090
C        3.11088594      -2.80296010       5.98662354
O        1.76991808      -3.04780237       6.08075011
H        0.30815074       0.62242792       4.93981210
H        0.34352629      -1.13902314       5.09694028
H       -0.27379124      -0.40185047       3.62162923
H        2.63409336      -0.19147487       4.61351320
H        2.03102504       0.53764979       3.13783965
H        2.13490291      -3.45750724       0.40940130
H        5.68390388      -2.28343035       3.82184493
H        6.95233278      -2.32080222       5.93942947
H        5.76718574      -2.62629187       8.10178983
H        3.30537170      -2.94564455       8.12597196
H        1.45511055      -3.30470322       5.19642959
C       -0.00445707       0.01189536      -1.78238275
H       -0.66409135       0.67374010      -2.43557963
H        0.65740317      -0.63156657      -2.45157240
C       -0.90989263      -0.90692880      -0.91072765
C        0.90977584       0.90977584      -0.90977584
C       -0.00465871       1.77757030       0.00794375
H       -0.66225468       2.44313916      -0.64384735
H        0.64322798       2.43503045       0.67728295
C       -1.78241447       0.00034974      -0.00472694
H       -2.45427497      -0.65498947       0.64260836
H       -2.43311707       0.67328779      -0.65473579
C       -0.91132561       0.90220522       0.91563759
C       -0.01476271      -0.02253852       1.78660255
H       -0.67934791      -0.69751639       2.42135241
H        0.63392994       0.61504881       2.47327442
C        0.01484550      -1.77751727      -0.01636693
H        0.67870853      -2.42144646      -0.68295456
H       -0.62264859      -2.45592969       0.64226336
C        1.78714474       0.01002794       0.00389507
H        2.44202412       0.67113390       0.66197326
H        2.45385902      -0.65136977      -0.64189061
C        0.91606151      -0.90478549       0.90901405
