94
Properties=species:S:1:pos:R:3 pbc="F F F"
C        1.82950955       1.82950955      -1.82950955
C        2.73171411       0.97172377      -2.71562780
C        1.98638835       0.35770654      -3.89999799
C        1.19243314       1.42807939      -4.63898490
C        0.29027500       2.19371086      -3.67449315
N        1.01546776       2.79188038      -2.56096442
H        2.44711420       2.36935060      -1.10436467
H        3.21570411       0.17632111      -2.13620195
H        3.53731850       1.60519753      -3.10966639
H        2.70017750      -0.11694888      -4.58294841
H        1.30867409      -0.43112576      -3.55194528
H        1.89266321       2.11009845      -5.13877319
H        0.59551254       0.95982060      -5.43049865
H       -0.54093028       1.57082714      -3.32805495
H        1.62202436       3.51448124      -2.94443784
C       -0.33088445       3.27665804      -4.39211863
C       -0.85110549       4.18362631      -4.99312997
Br      -1.69225892       5.65011729      -5.96491448
C       -1.82950955      -1.82950955      -1.82950955
C       -1.28477905      -3.25635903      -1.87792760
C       -1.58832158      -4.04875873      -0.60701257
C       -3.06669126      -3.93855962      -0.25424656
C       -3.49781745      -2.47580883      -0.18485272
N       -3.22203244      -1.73635351      -1.40992661
H       -1.72839989      -1.37295397      -2.81947561
H       -0.20380930      -3.26177118      -2.06264668
H       -1.74883427      -3.77803728      -2.72531087
H       -1.31531222      -5.10048367      -0.75038114
H       -0.98059212      -3.67455214       0.22565065
H       -3.65423492      -4.48045972      -1.00684020
H       -3.25239245      -4.43760134       0.70416199
H       -3.07346850      -1.97732516       0.69284185
H       -3.81463201      -2.12504279      -2.14126865
C       -4.92324547      -2.42860817       0.01396142
C       -6.11704143      -2.38907762       0.18046827
Br      -8.04730854      -2.32516006       0.44969575
C       -1.82950955       1.82950955       1.82950955
C       -3.22229289       1.21871957       1.97805323
C       -3.25098606       0.04131762       2.95178920
C       -2.57456009       0.42168630       4.26325105
C       -1.17491452       0.97518322       4.00838127
N       -1.16311742       2.11043945       3.09475569
H       -1.90468028       2.75949903       1.25665015
H       -3.62082147       0.90006305       1.00734265
H       -3.90354150       1.99220626       2.35643465
H       -4.28764481      -0.26090739       3.13943961
H       -2.74324091      -0.82536365       2.51161636
H       -3.19568298       1.16285515       4.78299671
H       -2.52489359      -0.45664216       4.91758037
H       -0.48860740       0.18661572       3.68272869
H       -1.64311177       2.88009361       3.55773807
C       -0.63494828       1.44506298       5.25788096
C       -0.18272656       1.83858727       6.30433695
Br       0.54847771       2.47488277       7.99636779
C        1.82950955      -1.82950955       1.82950955
C        1.21723752      -3.22138492       1.98044324
C        1.41314445      -4.09143191       0.73951653
C        2.87449129      -4.07726418       0.30774197
C        3.37415325      -2.64463677       0.13968899
N        3.20085530      -1.83115762       1.33629964
H        1.80382588      -1.31918981       2.79781378
H        0.14861785      -3.16045068       2.21915864
H        1.69864135      -3.72368978       2.82985128
H        1.09569438      -5.11876307       0.95171957
H        0.78183049      -3.72788389      -0.08022076
H        3.47303741      -4.61100966       1.05748777
H        2.98407776      -4.63284098      -0.63108694
H        2.92958701      -2.16908106      -0.74071626
H        3.81100407      -2.21343144       2.05650793
C        4.78766808      -2.68278591      -0.13256177
C        5.97148675      -2.71473582      -0.36057178
Br       7.88562141      -2.76639612      -0.72924468
C       -0.00445707       0.01189536      -1.78238275
H       -0.66409135       0.67374010      -2.43557963
H        0.65740317      -0.63156657      -2.45157240
C       -0.90989263      -0.90692880      -0.91072765
C        0.90977584       0.90977584      -0.90977584
C       -0.00465871       1.77757030       0.00794375
H       -0.66225468       2.44313916      -0.64384735
H        0.64322798       2.43503045       0.67728295
C       -1.78241447       0.00034974      -0.00472694
H       -2.45427497      -0.65498947       0.64260836
H       -2.43311707       0.67328779      -0.65473579
C       -0.91132561       0.90220522       0.91563759
C       -0.01476271      -0.02253852       1.78660255
H       -0.67934791      -0.69751639       2.42135241
H        0.63392994       0.61504881       2.47327442
C        0.01484550      -1.77751727      -0.01636693
H        0.67870853      -2.42144646      -0.68295456
H       -0.62264859      -2.45592969       0.64226336
C        1.78714474       0.01002794       0.00389507
H        2.44202412       0.67113390       0.66197326
H        2.45385902      -0.65136977      -0.64189061
C        0.91606151      -0.90478549       0.90901405
