154
Properties=species:S:1:pos:R:3 pbc="F F F"
C        1.82704032       1.82704032      -1.82704032
H        1.41480070       1.70708557      -2.83584262
C        1.73664446       3.28316102      -1.37015088
C        3.10102519       3.97109154      -1.34416305
C        3.97103263       3.54060650      -2.52346808
C        4.07482671       2.00255368      -2.67903020
H        3.73583641       1.76225549      -3.69839561
N        3.17810648       1.29516772      -1.74769277
C        5.53331297       1.44303716      -2.56938115
H        5.46274587       0.35891066      -2.73787334
C        6.16679236       1.66441697      -1.18126119
C        7.57707028       1.07896243      -1.12199938
C        8.42789826       1.60932484      -2.27094657
C        7.72159346       1.39745798      -3.60718666
H        7.68326268       0.33583710      -3.87446865
N        6.39047198       1.99021399      -3.63786114
H        1.27565059       3.39502326      -0.38100578
H        1.08830825       3.82199187      -2.07275367
H        2.97002667       5.05863337      -1.34756409
H        3.61552564       3.72043551      -0.40738592
H        3.52885902       3.95138980      -3.44058544
H        4.95322872       4.01446996      -2.41891580
H        3.14883322       0.30314572      -1.98023089
H        5.55729430       1.19411654      -0.40204057
H        6.21605183       2.73467441      -0.94542421
H        8.04526195       1.32482930      -0.16289809
H        7.52150095      -0.01492497      -1.18222251
H        8.62819496       2.67632326      -2.10295577
H        9.40198508       1.10529544      -2.26863913
H        6.49905177       2.99632441      -3.51880420
C        8.49399528       2.02789356      -4.64619889
C        9.14088180       2.55588336      -5.51637163
Br      10.18684260       3.40959822      -6.92336735
C       -1.82704032      -1.82704032      -1.82704032
H       -1.29235968      -1.88280848      -2.78256073
C       -1.97359203      -3.21446027      -1.20190406
C       -3.40832789      -3.73608989      -1.27186202
C       -4.07895783      -3.36351663      -2.59263275
C       -3.96904778      -1.85568737      -2.93167544
H       -3.49013702      -1.78596538      -3.92038511
N       -3.10018589      -1.14118867      -1.97959240
C       -5.34796460      -1.12670015      -3.07106653
H       -5.12223353      -0.08745530      -3.34984103
C       -6.15610052      -1.09803997      -1.75833003
C       -7.47856580      -0.35527815      -1.94418814
C       -8.25536442      -0.92800904      -3.12479621
C       -7.38247876      -0.96764739      -4.37611194
H       -7.18028412       0.04052437      -4.75380868
N       -6.14216105      -1.70510370      -4.17128235
H       -1.64439716      -3.25118829      -0.15609417
H       -1.32399341      -3.90723695      -1.75182343
H       -3.41654387      -4.82308354      -1.13659672
H       -3.98878564      -3.31269924      -0.44186219
H       -3.59226600      -3.93412123      -3.39444703
H       -5.11872824      -3.70710090      -2.56078534
H       -2.91962951      -0.19619678      -2.31638353
H       -5.58327214      -0.60424214      -0.96593714
H       -6.36663154      -2.11747916      -1.41203974
H       -8.07875845      -0.42362205      -1.03060884
H       -7.27852891       0.70897910      -2.11924868
H       -8.60672986      -1.93587963      -2.86486449
H       -9.15184625      -0.32165400      -3.30241939
H       -6.38993122      -2.66945148      -3.95479768
C       -8.10698883      -1.63388851      -5.42721038
C       -8.71376601      -2.19186545      -6.30750533
Br      -9.69487340      -3.09406696      -7.73086780
C       -1.82704032       1.82704032       1.82704032
H       -2.50398109       2.32841247       1.12533533
C       -2.60899523       0.96373787       2.81722326
C       -2.63005770       1.56357859       4.22264349
C       -2.76717676       3.08432354       4.18360691
C       -1.73563791       3.76881747       3.25195521
H       -2.30929440       4.36299666       2.52419645
N       -0.95207430       2.78476234       2.48413032
C       -0.78663742       4.78077452       3.97831934
H       -0.14364380       5.21595024       3.19993583
C        0.12673242       4.11330464       5.02589830
C        1.04695548       5.13978260       5.68520498
C        0.23909775       6.30874888       6.23851855
C       -0.67298434       6.89101074       5.16224302
H       -0.09658541       7.40896930       4.38801373
N       -1.55444693       5.89088088       4.57321929
H       -2.22776555      -0.06256797       2.88648205
H       -3.64266927       0.88272141       2.45766310
H       -3.44886250       1.12448283       4.80287880
H       -1.70038838       1.29961497       4.74334372
H       -3.77455229       3.32612123       3.82016074
H       -2.71390466       3.46217783       5.21053199
H       -0.40061477       3.26057794       1.77101712
H        0.74251792       3.33701323       4.55895610
H       -0.47168989       3.62162227       5.80283829
H        1.62207586       4.66674220       6.48832301
H        1.76900790       5.51050858       4.94729781
H       -0.34905269       5.96006378       7.09835751
H        0.92160352       7.07821904       6.61930413
H       -2.16003507       5.54027641       5.31386889
C       -1.50979619       7.90001545       5.75827608
C       -2.21062611       8.74505690       6.25745377
Br      -3.34380883      10.11141745       7.06458188
C        1.82704032      -1.82704032       1.82704032
H        2.52884857      -2.29929925       1.12958106
C        2.56984249      -0.96886931       2.85124456
C        2.57445627      -1.59776711       4.24405640
C        2.74452352      -3.11417459       4.17640910
C        1.74724749      -3.80002978       3.20913332
H        2.34832205      -4.36664484       2.48152062
N        0.95911252      -2.81639594       2.44545851
C        0.80502974      -4.84659839       3.89410315
H        0.18767157      -5.27843394       3.09342435
C       -0.14379191      -4.22054005       4.93572238
C       -1.05554706      -5.27960671       5.55397245
C       -0.23476580      -6.44302488       6.09991059
C        0.71155954      -6.98333172       5.03134684
H        0.16243346      -7.49662094       4.23451403
N        1.58367187      -5.95289337       4.48198187
H        2.16561406       0.04761493       2.93368050
H        3.60880228      -0.85884322       2.51540829
H        3.37157381      -1.15417253       4.85047779
H        1.62881011      -1.36422006       4.75031689
H        3.76411193      -3.32728386       3.82943848
H        2.67798294      -3.51471076       5.19392079
H        0.43275540      -3.28833764       1.71111678
H       -0.76606195      -3.44747062       4.47204274
H        0.42784802      -3.73311625       5.73518619
H       -1.65708247      -4.83570318       6.35436863
H       -1.75413315      -5.64951705       4.79341458
H        0.32791566      -6.10050375       6.97905457
H       -0.90857488      -7.23437060       6.45012392
H        2.16621400      -5.60556854       5.24239784
C        1.55700956      -7.98716276       5.62391540
C        2.26507396      -8.82787124       6.12019158
Br       3.40995421     -10.18722577       6.92262818
C       -0.00445707       0.01189536      -1.78238275
H       -0.66409135       0.67374010      -2.43557963
H        0.65740317      -0.63156657      -2.45157240
C       -0.90989263      -0.90692880      -0.91072765
C        0.90977584       0.90977584      -0.90977584
C       -0.00465871       1.77757030       0.00794375
H       -0.66225468       2.44313916      -0.64384735
H        0.64322798       2.43503045       0.67728295
C       -1.78241447       0.00034974      -0.00472694
H       -2.45427497      -0.65498947       0.64260836
H       -2.43311707       0.67328779      -0.65473579
C       -0.91132561       0.90220522       0.91563759
C       -0.01476271      -0.02253852       1.78660255
H       -0.67934791      -0.69751639       2.42135241
H        0.63392994       0.61504881       2.47327442
C        0.01484550      -1.77751727      -0.01636693
H        0.67870853      -2.42144646      -0.68295456
H       -0.62264859      -2.45592969       0.64226336
C        1.78714474       0.01002794       0.00389507
H        2.44202412       0.67113390       0.66197326
H        2.45385902      -0.65136977      -0.64189061
C        0.91606151      -0.90478549       0.90901405
