146
Properties=species:S:1:pos:R:3 pbc="F F F"
C        1.82704032       1.82704032      -1.82704032
H        1.41480070       1.70708557      -2.83584262
C        1.73664446       3.28316102      -1.37015088
C        3.10102519       3.97109154      -1.34416305
C        3.97103263       3.54060650      -2.52346808
C        4.07482671       2.00255368      -2.67903020
H        3.73583641       1.76225549      -3.69839561
N        3.17810648       1.29516772      -1.74769277
C        5.53331297       1.44303716      -2.56938115
H        5.46274587       0.35891066      -2.73787334
C        6.16679236       1.66441697      -1.18126119
C        7.57707028       1.07896243      -1.12199938
C        8.42789826       1.60932484      -2.27094657
C        7.72159346       1.39745798      -3.60718666
H        7.68326268       0.33583710      -3.87446865
N        6.39047198       1.99021399      -3.63786114
Br       8.76862768       2.25204897      -5.01562633
H        1.27565059       3.39502326      -0.38100578
H        1.08830825       3.82199187      -2.07275367
H        2.97002667       5.05863337      -1.34756409
H        3.61552564       3.72043551      -0.40738592
H        3.52885902       3.95138980      -3.44058544
H        4.95322872       4.01446996      -2.41891580
H        3.14883322       0.30314572      -1.98023089
H        5.55729430       1.19411654      -0.40204057
H        6.21605183       2.73467441      -0.94542421
H        8.04526195       1.32482930      -0.16289809
H        7.52150095      -0.01492497      -1.18222251
H        8.62819496       2.67632326      -2.10295577
H        9.40198508       1.10529544      -2.26863913
H        6.49905177       2.99632441      -3.51880420
C       -1.82704032      -1.82704032      -1.82704032
H       -1.20420472      -2.05295619      -2.70056798
C       -2.20371186      -3.10646480      -1.07977970
C       -3.67477178      -3.47705479      -1.26445322
C       -4.15179222      -3.19543831      -2.68787667
C       -3.82737425      -1.75913051      -3.16990583
H       -3.24109217      -1.85919356      -4.09620179
N       -2.98577953      -1.03272110      -2.20246633
C       -5.08678039      -0.90940500      -3.54954588
H       -4.71033307       0.05920654      -3.90840334
C       -6.02080150      -0.63854302      -2.35312600
C       -7.21789425       0.21323049      -2.77336834
C       -7.92738207      -0.41028744      -3.97050016
C       -6.93728921      -0.69155096      -5.09739793
H       -6.57725508       0.23709297      -5.55340633
N       -5.82267386      -1.52708271      -4.66879053
Br      -7.86287187      -1.64849680      -6.52493431
H       -1.99441966      -3.05301572      -0.00424426
H       -1.58657507      -3.92505082      -1.47142790
H       -3.82692439      -4.53306462      -1.01623512
H       -4.28559158      -2.89834293      -0.55941256
H       -3.65409062      -3.90613150      -3.36061214
H       -5.22256273      -3.42015972      -2.74389203
H       -2.65899400      -0.15926317      -2.61395266
H       -5.48076412      -0.11754111      -1.55514619
H       -6.38706662      -1.58116832      -1.92791551
H       -7.91573949       0.31859911      -1.93584896
H       -6.87486412       1.22163726      -3.03557163
H       -8.42210119      -1.33680622      -3.64856657
H       -8.72111434       0.26248452      -4.31728983
H       -6.20531523      -2.42684436      -4.38202079
C       -1.82704032       1.82704032       1.82704032
H       -2.50343073       2.32904285       1.12525531
C       -2.60984273       0.96364300       2.81647063
C       -2.63127381       1.56285065       4.22215532
C       -2.76767968       3.08367585       4.18375168
C       -1.73540190       3.76812375       3.25288493
H       -2.30845371       4.36289797       2.52513583
N       -0.95193717       2.78406147       2.48496833
C       -0.78627119       4.77931438       3.98014571
H       -0.14272268       5.21455178       3.20225541
C        0.12631408       4.11094786       5.02783674
C        1.04670470       5.13670322       5.68803356
C        0.23912851       6.30578582       6.24151237
C       -0.67219485       6.88895686       5.16508639
H       -0.09520506       7.40700564       4.39135773
N       -1.55384510       5.88949973       4.57520228
Br      -1.80628448       8.25686884       5.97314966
H       -2.22911405      -0.06286867       2.88543425
H       -3.64338912       0.88326380       2.45640087
H       -3.45054462       1.12386423       4.80181528
H       -1.70196356       1.29822375       4.74315975
H       -3.77477819       3.32610047       3.81995561
H       -2.71470456       3.46103617       5.21087375
H       -0.39993400       3.25995077       1.77232506
H        0.74195811       3.33458844       4.56082109
H       -0.47268830       3.61918410       5.80427805
H        1.62124130       4.66303265       6.49119800
H        1.76926401       5.50743623       4.95062627
H       -0.34957456       5.95697669       7.10092274
H        0.92181177       7.07476951       6.62296190
H       -2.15993221       5.53883371       5.31541445
C        1.82704032      -1.82704032       1.82704032
H        2.60201835      -2.20554335       1.15016718
C        2.44359851      -0.99482575       2.95153210
C        2.40247214      -1.71502806       4.29877959
C        2.67877218      -3.20953505       4.14679997
C        1.79356039      -3.89016490       3.07268530
H        2.47653968      -4.36696200       2.35298584
N        0.99063726      -2.90903016       2.32129954
C        0.88284228      -5.03833727       3.62455174
H        0.34814833      -5.45323652       2.75814502
C       -0.17031761      -4.54566179       4.63712633
C       -1.04562821      -5.69982936       5.12383094
C       -0.18422181      -6.84316042       5.64923106
C        0.86235448      -7.24878794       4.61509567
H        0.40086991      -7.74072421       3.75197432
N        1.69576435      -6.13030285       4.19247991
Br       2.04467983      -8.58540094       5.40622222
H        1.96705949      -0.01393365       3.07068650
H        3.49192079      -0.79666481       2.69446819
H        3.12767003      -1.26387051       4.98468359
H        1.41299276      -1.57672067       4.75363363
H        3.73039227      -3.33359052       3.85685148
H        2.57512947      -3.68145955       5.13002547
H        0.54506190      -3.36258496       1.52456296
H       -0.81285294      -3.78398082       4.18232354
H        0.31516832      -4.07823020       5.50275193
H       -1.72537188      -5.35017219       5.90818904
H       -1.66793652      -6.06093680       4.29579820
H        0.29710408      -6.52596994       6.58439996
H       -0.82374645      -7.69752667       5.90213943
H        2.20406730      -5.79903105       5.01108202
C       -0.00445707       0.01189536      -1.78238275
H       -0.66409135       0.67374010      -2.43557963
H        0.65740317      -0.63156657      -2.45157240
C       -0.90989263      -0.90692880      -0.91072765
C        0.90977584       0.90977584      -0.90977584
C       -0.00465871       1.77757030       0.00794375
H       -0.66225468       2.44313916      -0.64384735
H        0.64322798       2.43503045       0.67728295
C       -1.78241447       0.00034974      -0.00472694
H       -2.45427497      -0.65498947       0.64260836
H       -2.43311707       0.67328779      -0.65473579
C       -0.91132561       0.90220522       0.91563759
C       -0.01476271      -0.02253852       1.78660255
H       -0.67934791      -0.69751639       2.42135241
H        0.63392994       0.61504881       2.47327442
C        0.01484550      -1.77751727      -0.01636693
H        0.67870853      -2.42144646      -0.68295456
H       -0.62264859      -2.45592969       0.64226336
C        1.78714474       0.01002794       0.00389507
H        2.44202412       0.67113390       0.66197326
H        2.45385902      -0.65136977      -0.64189061
C        0.91606151      -0.90478549       0.90901405
