133
Properties=species:S:1:pos:R:3 pbc="F F F"
C        0.00000000       0.00000000       0.00000000
C        0.91713630       0.91713630      -0.91713630
H        0.50489667       0.79718154      -1.92593860
C        0.82674044       2.37325700      -0.46024685
C        2.19112117       3.06118752      -0.43425903
C        3.06112861       2.63070247      -1.61356406
C        3.16492269       1.09264965      -1.76912617
H        2.82593239       0.85235147      -2.78849159
N        2.26820246       0.38526369      -0.83778874
C        4.62340895       0.53313313      -1.65947712
H        4.55284185      -0.55099336      -1.82796931
C        5.25688834       0.75451295      -0.27135716
C        6.66716625       0.16905841      -0.21209536
C        7.51799424       0.69942082      -1.36104255
C        6.81168943       0.48755395      -2.69728264
H        6.77335865      -0.57406692      -2.96456463
N        5.48056796       1.08030996      -2.72795711
H        0.36574657       2.48511923       0.52889824
H        0.17840423       2.91208784      -1.16284965
H        2.06012264       4.14872935      -0.43766007
H        2.70562162       2.81053148       0.50251811
H        2.61895499       3.04148578      -2.53068142
H        4.04332469       3.10456594      -1.50901178
H        2.23892919      -0.60675830      -1.07032686
H        4.64739028       0.28421252       0.50786345
H        5.30614781       1.82477038      -0.03552019
H        7.13535793       0.41492528       0.74700593
H        6.61159693      -0.92482900      -0.27231849
H        7.71829093       1.76641923      -1.19305174
H        8.49208105       0.19539141      -1.35873511
H        5.58914774       2.08642039      -2.60890017
C        7.58409125       1.11798954      -3.73629486
C        8.23097777       1.64597934      -4.60646760
Br       9.27693857       2.49969419      -6.01346332
C       -0.91713630      -0.91713630      -0.91713630
H       -0.35544930      -1.01945509      -1.85311242
C       -1.12658085      -2.27894981      -0.25471363
C       -2.57427543      -2.75830800      -0.35398428
C       -3.19198882      -2.40730580      -1.70610051
C       -3.02411210      -0.91502974      -2.08755667
H       -2.51315528      -0.89132020      -3.06229996
N       -2.16268243      -0.19774963      -1.13082283
C       -4.37436623      -0.14889108      -2.29276190
H       -4.10744591       0.87361088      -2.59598276
C       -5.22104980      -0.05397602      -1.00773263
C       -6.51304727       0.72272414      -1.25799689
C       -7.27101523       0.13702589      -2.44446826
C       -6.36187457       0.03110087      -3.66575233
H       -6.11641827       1.02015318      -4.06759127
N       -5.15235871      -0.73718101      -3.39929531
H       -0.83092299      -2.29266183       0.80161726
H       -0.48266350      -3.00835554      -0.76232268
H       -2.62100279      -3.83971780      -0.18579147
H       -3.16622262      -2.29128947       0.44387710
H       -2.69923576      -3.01763005      -2.47425638
H       -4.24259151      -2.71767857      -1.69663233
H       -1.94209513       0.73014089      -1.49054351
H       -4.65745064       0.44684162      -0.21313032
H       -5.47422802      -1.05502245      -0.63718791
H       -7.14282183       0.70173309      -0.36218853
H       -6.27418428       1.77428147      -1.45918360
H       -7.66187833      -0.85087715      -2.16500643
H       -8.14200845       0.76465476      -2.66885389
H       -5.43701902      -1.68615277      -3.16129652
C       -7.07453144      -0.64552424      -4.71831997
C       -7.67138158      -1.21219777      -5.59984536
Br      -8.63643777      -2.12846095      -7.02519737
C       -0.91713630       0.91713630       0.91713630
H       -0.99206593       1.86487756       0.37107332
C       -2.29437857       0.27629538       1.08957034
C       -2.79852084       0.35812850       2.52991837
C       -2.43452183       1.69210197       3.17877133
C       -0.93272522       2.04890633       3.04506696
H       -0.88190278       3.03215323       2.55271943
N       -0.21712555       1.09486753       2.17926182
C       -0.18806642       2.21539605       4.41255674
H        0.84452420       2.50446677       4.16987523
C       -0.13213480       0.91368579       5.23693786
C        0.62497556       1.12608105       6.54721453
C        0.04699232       2.30922618       7.31622374
C       -0.01994800       3.54854893       6.42802909
H        0.98059651       3.93643329       6.20801958
N       -0.77046045       3.31831465       5.20005993
H       -2.32178495      -0.77406505       0.77424765
H       -3.00243603       0.80888990       0.44201578
H       -3.88348228       0.20912301       2.55390677
H       -2.35706746      -0.45883087       3.11539840
H       -3.02160428       2.48021399       2.68930392
H       -2.76437169       1.66931376       4.22321697
H        0.72105425       1.44132658       1.98222542
H        0.36451365       0.12032078       4.66793221
H       -1.14424442       0.55716667       5.46502728
H        0.57610743       0.21953712       7.15984757
H        1.68424265       1.31210610       6.33122296
H       -0.95286980       2.04101909       7.68387302
H        0.66238980       2.50614223       8.20245514
H       -1.72869018       3.09276391       5.46301421
C       -0.69041945       4.60033695       7.14761925
C       -1.25193929       5.48120942       7.75027601
Br      -2.15986938       6.90550569       8.72472102
C        0.91713630      -0.91713630       0.91713630
H        1.84576277      -0.34652202       1.03573202
C        0.24236798      -1.14858370       2.26929261
C        0.35225822      -2.60026995       2.73403955
C        1.71475239      -3.19947104       2.39117170
C        2.11045062      -3.01119700       0.90505090
H        3.07975511      -2.48951184       0.89750850
N        1.15217084      -2.15237104       0.18671301
C        2.33865337      -4.35070844       0.12665740
H        2.64996916      -4.06937780      -0.88952917
C        1.06404726      -5.21013718       0.00857402
C        1.33678161      -6.49079675      -0.77925834
C        2.52506338      -7.24225451      -0.18886029
C        3.73513081      -6.32118489      -0.05978968
H        4.14492610      -6.06061571      -1.04168545
N        3.44719728      -5.12308020       0.71855756
H       -0.81721514      -0.86452152       2.27466117
H        0.73500579      -0.50722435       3.01111157
H        0.17291357      -2.66061827       3.81298022
H       -0.43399967      -3.19566614       2.25196852
H        2.47084346      -2.70514314       3.01513559
H        1.71340565      -4.25344149       2.69005528
H        1.51946372      -1.91779082      -0.73475679
H        0.26879400      -4.64971905      -0.49477370
H        0.68549725      -5.47822030       1.00272083
H        0.44772966      -7.13040325      -0.77485564
H        1.54669557      -6.23830506      -1.82591421
H        2.23923109      -7.64687881       0.79165201
H        2.76571422      -8.10386699      -0.82337364
H        3.20208390      -5.42064118       1.66174323
C        4.78804757      -7.02977639       0.62055169
C        5.66986537      -7.62322176       1.19033759
Br       7.09569016      -8.58277274       2.11163319
