129
Properties=species:S:1:pos:R:3 pbc="F F F"
C        0.00000000       0.00000000       0.00000000
C        0.88144840       0.88144840      -0.88144840
C        1.54968909       1.96822995      -0.32655123
C        2.35424916       2.78136776      -1.13314320
C        2.50454651       2.51990961      -2.50607316
C        1.81620554       1.40888005      -3.03867155
C        1.01161029       0.59633610      -2.23545901
C        3.36710528       3.40262519      -3.44107232
C        2.37984063       4.14336280      -4.38222659
C        4.15143447       4.51805616      -2.69901254
C        4.41554303       2.54380319      -4.19051403
C        4.48687529       2.47727905      -5.59298478
C        5.45185129       1.68990329      -6.23133881
C        6.36288472       0.95828590      -5.47616484
C        6.31714643       1.00283095      -4.08777441
C        5.35037610       1.78697559      -3.45242203
H        1.45144704       2.19604180       0.73170578
H        2.85305688       3.62144734      -0.65765505
H        1.90581652       1.16328234      -4.09581356
H        0.49527399      -0.25102072      -2.67823980
H        1.81133539       3.45477608      -5.01837510
H        2.90262216       4.84615195      -5.04218121
H        1.64771580       4.72421382      -3.80694631
H        4.82111053       4.11810441      -1.92875253
H        3.47557450       5.22878416      -2.20824297
H        4.77220569       5.09399186      -3.39695882
H        3.79703275       3.03207200      -6.22308271
H        5.48109505       1.65678246      -7.31726580
H        7.02280194       0.43311439      -3.48917523
H        5.32754383       1.79754356      -2.36375470
C        7.35597144       0.15079342      -6.13596380
C        8.18768156      -0.52548153      -6.68854543
Br       9.53248649      -1.61896094      -7.58202318
C       -0.88144840      -0.88144840      -0.88144840
C       -0.29997598      -1.70015124      -1.84434305
C       -1.10578316      -2.50537247      -2.65760448
C       -2.50468629      -2.50591952      -2.51992347
C       -3.06425019      -1.66690540      -1.53260155
C       -2.26173595      -0.86140555      -0.72026390
C       -3.43724165      -3.36398318      -3.40957797
C       -4.20683711      -2.37411579      -4.32447712
C       -2.67911029      -4.31729156      -4.37210132
C       -4.35982701      -4.25175331      -2.53827993
C       -5.76282496      -4.19054732      -2.60376684
C       -6.56071989      -5.01254554      -1.79982796
C       -5.96715135      -5.91112816      -0.91905595
C       -4.58258841      -5.99428311      -0.83088027
C       -3.78778107      -5.16992066      -1.63207200
H        0.77892038      -1.71976303      -1.97494041
H       -0.60842185      -3.12480585      -3.39893157
H       -4.14278330      -1.63709117      -1.38503795
H       -2.72560802      -0.22680770       0.02992264
H       -4.84304475      -1.68612550      -3.75531632
H       -4.84948488      -2.90232156      -5.03914888
H       -3.51279720      -1.75697515      -4.90910358
H       -2.01722681      -5.01059161      -3.84014905
H       -2.06275043      -3.76112350      -5.08872770
H       -3.38038061      -4.92675868      -4.95601708
H       -6.26996540      -3.50500263      -3.27721943
H       -7.64285783      -4.94120256      -1.87108292
H       -4.10955532      -6.69121860      -0.14431763
H       -2.70557307      -5.24564738      -1.53762164
C       -6.79086144      -6.75709444      -0.09477278
C       -7.48071863      -7.46559120       0.59556438
Br      -8.59615937      -8.61117054       1.71178117
C       -0.88144840       0.88144840       0.88144840
C       -0.76620114       0.81209725       2.26617188
C       -1.57667634       1.61502348       3.07706030
C       -2.51342787       2.50056917       2.51653224
C       -2.60472869       2.55000509       1.10902335
C       -1.79729986       1.74854860       0.29755695
C       -3.44475003       3.39295403       3.37309873
C       -4.88077913       2.83233583       3.19231506
C       -3.15621128       3.31577590       4.89651599
C       -3.30184870       4.88069676       2.96731479
C       -4.38388405       5.65681089       2.51644418
C       -4.21219263       6.99958461       2.16131615
C       -2.95499866       7.58811246       2.25422434
C       -1.86555312       6.84653211       2.69566656
C       -2.03862396       5.50479318       3.04635658
H       -0.05179711       0.13569039       2.72829555
H       -1.45531442       1.52386913       4.15297573
H       -3.31204095       3.22434300       0.62852846
H       -1.89392652       1.81146174      -0.78289518
H       -5.22926634       2.90020242       2.15501781
H       -5.60433950       3.36786304       3.81875277
H       -4.92906460       1.77341683       3.47639451
H       -2.12621544       3.59884278       5.14290925
H       -3.32028739       2.30447807       5.28783618
H       -3.81724936       3.98876785       5.45713916
H       -5.38349164       5.23991660       2.42877922
H       -5.06716967       7.57378515       1.81418849
H       -0.87918429       7.29652044       2.76938683
H       -1.16822755       4.94138141       3.37923313
C       -2.78201889       8.97055041       1.89015936
C       -2.63714833      10.12834220       1.58525493
Br      -2.40290488      12.00039359       1.09225026
C        0.88144840      -0.88144840       0.88144840
C        2.22215625      -1.06430846       0.55800555
C        3.03149080      -1.87613847       1.36113085
C        2.51379999      -2.51622506       2.50050423
C        1.15108734      -2.30897680       2.80369299
C        0.34098232      -1.49971955       2.00270354
C        3.36508751      -3.43885864       3.40685665
C        2.83473448      -4.88128624       3.18940930
C        4.86712466      -3.48418934       3.01718917
C        3.30113302      -2.96790557       4.88082166
C        2.84243292      -3.78888294       5.92582325
C        2.80261945      -3.32489216       7.24558178
C        3.22381488      -2.03232164       7.54119895
C        3.68171043      -1.19646303       6.52957832
C        3.71722262      -1.66070512       5.21184598
H        2.65016285      -0.58339376      -0.31777355
H        4.07096258      -1.99380763       1.06738907
H        0.70613500      -2.77965456       3.67912286
H       -0.70445972      -1.36202353       2.26492926
H        1.78953131      -4.99445405       3.50050121
H        3.42628965      -5.61669175       3.74797392
H        2.88467352      -5.16400069       2.13020172
H        5.33582315      -2.49343877       3.03870555
H        5.01070947      -3.89242471       2.00946746
H        5.43375819      -4.12274168       3.70665649
H        2.50464297      -4.80521437       5.74233012
H        2.44101822      -3.98202687       8.03209823
H        4.01057128      -0.18448607       6.75003421
H        4.06987481      -0.98397817       4.43498911
C        3.18368652      -1.55859032       8.90045182
C        3.15007902      -1.16184034      10.03882609
Br       3.09573853      -0.52032918      11.87948102
