150
Properties=species:S:1:pos:R:3 pbc="F F F"
C        1.79135243       1.79135243      -1.79135243
C        2.45959311       2.87813398      -1.23645525
C        3.26415318       3.69127178      -2.04304723
C        3.41445054       3.42981363      -3.41597718
C        2.72610956       2.31878408      -3.94857557
C        1.92151431       1.50624013      -3.14536304
C        4.27700931       4.31252921      -4.35097635
C        3.28974465       5.05326683      -5.29213061
C        5.06133850       5.42796018      -3.60891657
C        5.32544706       3.45370721      -5.10041806
C        5.39677931       3.38718307      -6.50288881
C        6.36175531       2.59980732      -7.14124284
C        7.27278875       1.86818993      -6.38606886
C        7.22705046       1.91273497      -4.99767844
C        6.26028012       2.69687962      -4.36232606
H        2.36135106       3.10594582      -0.17819824
H        3.76296090       4.53135137      -1.56755908
H        2.81572054       2.07318637      -5.00571758
H        1.40517802       0.65888331      -3.58814382
H        2.72123941       4.36468011      -5.92827912
H        3.81252618       5.75605598      -5.95208523
H        2.55761982       5.63411784      -4.71685034
H        5.73101456       5.02800844      -2.83865655
H        4.38547853       6.13868818      -3.11814699
H        5.68210971       6.00389589      -4.30686284
H        4.70693678       3.94197602      -7.13298673
H        6.39099908       2.56668649      -8.22716983
H        7.93270597       1.34301841      -4.39907925
H        6.23744785       2.70744758      -3.27365873
C        8.26587546       1.06069744      -7.04586782
C        9.09758559       0.38442249      -7.59844945
Br      10.44239051      -0.70905691      -8.49192721
C       -1.79135243      -1.79135243      -1.79135243
C       -2.54582428      -2.81011227      -1.21824579
C       -3.35074779      -3.62333676      -2.02438764
C       -3.41521091      -3.42985344      -3.41517700
C       -2.64052602      -2.38673723      -3.96620596
C       -1.83542482      -1.57429140      -3.16340126
C       -4.27511848      -4.31647003      -4.34892636
C       -3.28237685      -5.15767350      -5.19509173
C       -5.15661023      -5.34755752      -3.59404749
C       -5.23483015      -3.44672450      -5.19801767
C       -5.22967345      -3.45332659      -6.60385115
C       -6.11581882      -2.65307808      -7.33390856
C       -7.02340971      -1.83508008      -6.66855775
C       -7.05215737      -1.80600482      -5.27930168
C       -6.16389071      -2.60328836      -4.55230672
H       -2.51512937      -2.98454229      -0.14582347
H       -3.91867397      -4.40921098      -1.53398640
H       -2.66170027      -2.19495803      -5.03796618
H       -1.25131650      -0.78028145      -3.62060719
H       -2.64490612      -4.53525129      -5.83404123
H       -3.80788829      -5.86744698      -5.84533212
H       -2.61386955      -5.74336767      -4.55135078
H       -5.84243295      -4.87196230      -2.88328431
H       -4.54692684      -6.06446309      -3.03092377
H       -5.77093372      -5.92783743      -4.29409729
H       -4.53946296      -4.07670955      -7.16572703
H       -6.08691606      -2.67787264      -8.42006669
H       -7.75568879      -1.16864260      -4.75047225
H       -6.19809641      -2.55552308      -3.46493467
C       -7.93537589      -1.01448751      -7.42257732
C       -8.69914758      -0.32724124      -8.05406871
Br      -9.93410179       0.78397786      -9.07513688
C       -1.79135243       1.79135243       1.79135243
C       -2.28909598       1.29368157       2.99140480
C       -3.10186784       2.09751730       3.79908705
C       -3.42824565       3.41134694       3.42064877
C       -2.90590577       3.88822808       2.19933536
C       -2.09511157       3.08709619       1.39090972
C       -4.33933060       4.33005859       4.27112568
C       -5.66254337       4.49571535       3.47688337
C       -4.74740668       3.71428585       5.63652272
C       -3.62788011       5.67019594       4.58149628
C       -4.15635106       6.91923090       4.21126923
C       -3.48195368       8.10783050       4.51302128
C       -2.26875296       8.06564263       5.19265195
C       -1.72022688       6.84600982       5.57122716
C       -2.39367316       5.66012885       5.26568378
H       -2.05493961       0.28104336       3.30951216
H       -3.47160392       1.66535125       4.72491617
H       -3.12685030       4.90128879       1.86648539
H       -1.71005521       3.48581367       0.45633627
H       -5.51173739       4.99166568       2.51079557
H       -6.39848799       5.08412309       4.03805631
H       -6.12078160       3.52089705       3.26690935
H       -3.88053242       3.45975948       6.25738765
H       -5.33705035       2.79875778       5.50650558
H       -5.36318002       4.41390963       6.21577880
H       -5.10085855       7.00076932       3.68027166
H       -3.91432703       9.05844953       4.21207883
H       -0.77202791       6.80251670       6.10025902
H       -1.93899312       4.71640856       5.56315248
C       -1.57835181       9.29049391       5.50359501
C       -1.00014084      10.31630686       5.76400982
Br      -0.06522262      11.97495964       6.18507854
C        1.79135243      -1.79135243       1.79135243
C        2.58962319      -1.21203251       2.77252664
C        3.40285426      -2.01699586       3.57862207
C        3.42951245      -3.41314820       3.41758070
C        2.60667908      -3.97100746       2.41578267
C        1.79477247      -3.16916817       1.60917683
C        4.32744413      -4.34150348       4.27156725
C        5.42364990      -4.89133240       3.32015979
C        5.09079376      -3.60338417       5.40403732
C        3.48175007      -5.44670825       4.95111400
C        3.71598890      -6.81858127       4.75228103
C        2.92916976      -7.78596414       5.38767157
C        1.89664594      -7.39583649       6.23456510
C        1.63985658      -6.04708648       6.45052080
C        2.42456737      -5.08276424       5.81215418
H        2.59109104      -0.13504760       2.91935649
H        4.01279123      -1.52063499       4.32844513
H        2.58947228      -5.04821239       2.25693981
H        1.17376741      -3.63160825       0.84682949
H        5.00705302      -5.49894890       2.50819672
H        6.14934779      -5.51317449       3.85814511
H        5.98460634      -4.07318067       2.85080099
H        4.41623102      -3.08560421       6.09584432
H        5.78482308      -2.85531677       5.00217386
H        5.68570042      -4.30618842       6.00097960
H        4.51151264      -7.16969204       4.10069485
H        3.13284096      -8.83912950       5.21288493
H        0.83416522      -5.73235423       7.10828419
H        2.19752068      -4.03245325       5.98858024
C        1.09024032      -8.39362296       6.88857745
C        0.41487562      -9.22926913       7.43631279
Br      -0.67713199     -10.58043830       8.32195450
C       -0.00445707       0.01189536      -1.78238275
H       -0.66409135       0.67374010      -2.43557963
H        0.65740317      -0.63156657      -2.45157240
C       -0.90989263      -0.90692880      -0.91072765
C        0.90977584       0.90977584      -0.90977584
C       -0.00465871       1.77757030       0.00794375
H       -0.66225468       2.44313916      -0.64384735
H        0.64322798       2.43503045       0.67728295
C       -1.78241447       0.00034974      -0.00472694
H       -2.45427497      -0.65498947       0.64260836
H       -2.43311707       0.67328779      -0.65473579
C       -0.91132561       0.90220522       0.91563759
C       -0.01476271      -0.02253852       1.78660255
H       -0.67934791      -0.69751639       2.42135241
H        0.63392994       0.61504881       2.47327442
C        0.01484550      -1.77751727      -0.01636693
H        0.67870853      -2.42144646      -0.68295456
H       -0.62264859      -2.45592969       0.64226336
C        1.78714474       0.01002794       0.00389507
H        2.44202412       0.67113390       0.66197326
H        2.45385902      -0.65136977      -0.64189061
C        0.91606151      -0.90478549       0.90901405
