57
Properties=species:S:1:pos:R:3 pbc="F F F"
C        0.00000000       0.00000000       0.00000000
C        0.88209372       0.88209372      -0.88209372
C        0.64088225       2.25108917      -0.94856171
C        1.44692427       3.05249241      -1.75721278
C        2.49047678       2.48374403      -2.49606707
Br       3.53366210       3.64789913      -3.57574359
C        2.74309011       1.10347686      -2.43311986
C        3.84753933       0.45031852      -3.21597705
C        1.92158928       0.30825756      -1.61545748
H       -0.16771967       2.70230263      -0.37974554
H        1.25277438       4.12160510      -1.80635818
H        3.91609798      -0.62082229      -2.99559177
H        4.81552106       0.89375519      -2.96120789
H        3.66497105       0.55283155      -4.29062393
H        2.09441300      -0.76433165      -1.55219403
C       -0.88209372      -0.88209372      -0.88209372
C       -1.91724237      -1.61454654      -0.30874422
C       -2.71859075      -2.42074855      -1.11729016
C       -2.48313987      -2.49223879      -2.49490921
Br      -3.61832375      -3.61991872      -3.51906236
C       -1.44245255      -1.75446743      -3.08276685
C       -1.14955649      -1.80821161      -4.55606680
C       -0.64212845      -0.94785474      -2.25532113
H       -2.10752985      -1.56693532       0.76013666
H       -3.52523360      -2.99209202      -0.66341205
H       -0.33541050      -1.12724480      -4.82821217
H       -2.02822481      -1.50684011      -5.13541922
H       -0.84315453      -2.81824400      -4.84702800
H        0.17279616      -0.36919959      -2.68587195
C       -0.88209372       0.88209372       0.88209372
C       -0.92197131       0.66276689       2.25579493
C       -1.73069803       1.46868832       3.05724312
C       -2.49617635       2.49027207       2.48383944
Br      -3.57385154       3.53488133       3.64857195
C       -2.46019494       2.72075103       1.09874086
C       -3.27207273       3.80107765       0.44068453
C       -1.64209888       1.89962688       0.30357856
H       -0.33235126      -0.12869716       2.71067441
H       -1.75898183       1.29167623       4.13007961
H       -3.07052766       3.85531795      -0.63497813
H       -3.02627506       4.78040798       0.86380109
H       -4.34168042       3.60258565       0.56416047
H       -1.59940123       2.05549288      -0.77261873
C        0.88209372      -0.88209372       0.88209372
C        2.25633980      -0.91858433       0.66560899
C        3.05779399      -1.72732054       1.47151493
C        2.48385205      -2.49619000       2.49024582
Br       3.64865444      -3.57360973       3.53504066
C        1.09819324      -2.46364352       2.71785006
C        0.43957301      -3.27921726       3.79504464
C        0.30303727      -1.64549227       1.89677478
H        2.71164355      -0.32631440      -0.12362945
H        4.13106208      -1.75294700       1.29672858
H       -0.63662935      -3.08007484       3.84742198
H        0.86008267      -3.03460731       4.77579416
H        0.56574843      -4.34813491       3.59454319
H       -0.77357736      -1.60541413       2.05043862
