65
Properties=species:S:1:pos:R:3 pbc="F F F"
C        0.00000000       0.00000000       0.00000000
C        0.88209372       0.88209372      -0.88209372
C        0.64088225       2.25108917      -0.94856171
C        1.44692427       3.05249241      -1.75721278
C        2.49047678       2.48374403      -2.49606707
C        2.74309011       1.10347686      -2.43311986
C        3.84753933       0.45031852      -3.21597705
C        1.92158928       0.30825756      -1.61545748
H       -0.16771967       2.70230263      -0.37974554
H        1.25277438       4.12160510      -1.80635818
H        3.91609798      -0.62082229      -2.99559177
H        4.81552106       0.89375519      -2.96120789
H        3.66497105       0.55283155      -4.29062393
H        2.09441300      -0.76433165      -1.55219403
C        3.28118970       3.36614955      -3.31443957
C        3.94341178       4.10516418      -3.99982654
Br       5.01416887       5.30008832      -5.10803931
C       -0.88209372      -0.88209372      -0.88209372
C       -0.60748632      -2.24204972      -0.99099708
C       -1.41371712      -3.04338882      -1.79952352
C       -2.49079854      -2.48360440      -2.49588493
C       -2.77718408      -1.11259552      -2.38990723
C       -3.91846383      -0.46893637      -3.12643471
C       -1.95510683      -0.31725921      -1.57293829
H        0.22726927      -2.68621506      -0.45538272
H       -1.19341757      -4.10536047      -1.88195962
H       -4.00877512       0.59397012      -2.87606247
H       -4.86759513      -0.94427973      -2.85860927
H       -3.76183711      -0.53881723      -4.20777219
H       -2.15381058       0.74838714      -1.47685195
C       -3.27987828      -3.36523358      -3.31666697
C       -3.94073256      -4.10359802      -4.00407192
Br      -5.00927803      -5.29747087      -5.11554760
C       -0.88209372       0.88209372       0.88209372
C       -2.14455333       0.43530413       1.26067566
C       -2.94780266       1.24490846       2.06391835
C       -2.48721757       2.49717955       2.48589074
C       -1.21342382       2.95525054       2.11101247
C       -0.68282978       4.29620741       2.53479772
C       -0.41594454       2.12938873       1.29997105
H       -2.51199966      -0.53494003       0.93726887
H       -3.93417545       0.89109857       2.35546363
H        0.34424367       4.44980117       2.18530996
H       -0.66668675       4.37735578       3.62644160
H       -1.29609028       5.09920900       2.11312724
H        0.57341363       2.46282019       0.99286883
C       -3.36802097       3.28480091       3.30895695
C       -4.10569381       3.94443379       3.99827490
Br      -5.29844840       5.01100438       5.11284373
C        0.88209372      -0.88209372       0.88209372
C        2.14050581      -0.43103261       1.26899470
C        2.94378617      -1.24063675       2.07220654
C        2.48727262      -2.49717284       2.48584241
C        1.21756370      -2.95958819       2.10253494
C        0.69146670      -4.30515667       2.51721153
C        0.42001181      -2.13366088       1.29163163
H        2.50478018       0.54255021       0.95209853
H        3.92699414      -0.88346888       2.37027464
H       -0.33313641      -4.46202808       2.16197579
H        0.67042020      -4.39170709       3.60835684
H        1.31067727      -5.10310485       2.09464441
H       -0.56620536      -2.47038941       0.97809134
C        3.36790172      -3.28451473       3.30936237
C        4.10542860      -3.94391357       3.99906033
Br       5.29794718      -5.01010571       5.11424361
