154
Properties=species:S:1:pos:R:3 pbc="F F F"
C        1.79682698       1.79682698      -1.79682698
C        1.53043336       3.17183694      -1.78159589
C        2.29532130       4.04898080      -2.55212427
C        3.33219663       3.55476852      -3.33992175
C        3.59975101       2.18267438      -3.35539444
C        2.83073815       1.28115531      -2.59358458
C        3.20129552      -0.17405160      -2.66417989
C        4.10811195       4.44492394      -4.14672845
C        4.73665289       5.18269522      -4.85462110
C        5.50561539       6.10879341      -5.80114883
C        6.07740610       6.81741792      -6.58325032
C        6.72860551       7.64259402      -7.55281441
C        6.39519879       8.99185125      -7.66026685
C        7.00848921       9.78402331      -8.63211758
C        7.95701820       9.22852666      -9.49753748
C        8.30992598       7.87326638      -9.39686965
C        7.68132051       7.08863766      -8.41387691
C        9.31551174       7.23148852     -10.31109617
H        0.72458861       3.57204658      -1.17049705
H        2.07373356       5.11342724      -2.53297140
H        4.41438809       1.80495476      -3.97229192
H        2.44933535      -0.83719304      -2.23240601
H        4.14701718      -0.34195261      -2.13888647
H        3.31954316      -0.47870751      -3.71016198
H        5.65362042       9.43273579      -6.99818588
H        6.73493908      10.83346693      -8.71086725
H        7.93057924       6.03256833      -8.32260080
H        9.49613615       6.18624655     -10.03744094
H       10.27750674       7.75012208     -10.25135381
H        8.95258621       7.24236993     -11.34375663
C        8.54105891      10.09617179     -10.48732957
C        9.03019300      10.82282458     -11.31628045
Br       9.82108145      11.99776069     -12.65662391
C       -1.79682698      -1.79682698      -1.79682698
C       -2.94434039      -2.33703619      -1.20248961
C       -3.80885499      -3.14670197      -1.94086941
C       -3.53060633      -3.41786517      -3.27841541
C       -2.38606706      -2.87860993      -3.87314285
C       -1.49593606      -2.06921993      -3.14032204
C       -0.29900567      -1.52404219      -3.86837595
C       -4.40152309      -4.26199230      -4.03624895
C       -5.10825086      -5.00059992      -4.66511844
C       -5.97358974      -5.98498822      -5.45697967
C       -6.61516556      -6.79450414      -6.06840463
C       -7.34215212      -7.79384051      -6.78802130
C       -8.41163135      -8.45240372      -6.18328182
C       -9.09491854      -9.45175204      -6.87795951
C       -8.71054504      -9.79355353      -8.17898378
C       -7.64083554      -9.13402366      -8.80520282
C       -6.96175206      -8.13120110      -8.09088191
C       -7.18657304      -9.47476230     -10.19676108
H       -3.17480269      -2.13304097      -0.15928858
H       -4.69362409      -3.56217115      -1.46433696
H       -2.17748861      -3.09354666      -4.92059949
H        0.45429363      -1.09174223      -3.20709973
H       -0.61568995      -0.75163725      -4.57662383
H        0.19902836      -2.32792372      -4.42210226
H       -8.71438447      -8.20057871      -5.16957891
H       -9.92294603      -9.96324628      -6.39308095
H       -6.12234954      -7.61225450      -8.55114433
H       -6.37895283      -8.81288432     -10.52798649
H       -8.00885969      -9.36013681     -10.90998613
H       -6.80581521     -10.50041751     -10.23248005
C       -9.44687731     -10.84317195      -8.83451101
C      -10.06355559     -11.72222738      -9.38351506
Br     -11.06067220     -13.14358566     -10.27120819
C       -1.79682698       1.79682698       1.79682698
C       -1.49565393       1.82375238       3.16445988
C       -2.24703956       2.61064704       4.03873977
C       -3.30209085       3.37641326       3.54838279
C       -3.60324227       3.35116265       2.18341491
C       -2.86353232       2.55383444       1.28811127
C       -3.25292317       2.60160151      -0.16310087
C       -4.08851631       4.17048052       4.44076751
C       -4.77513866       4.80797213       5.19085843
C       -5.68879806       5.57911132       6.14764825
C       -6.44028481       6.14340147       6.89438805
C       -7.36909991       6.77646486       7.77844917
C       -7.17685946       6.71280828       9.15764915
C       -8.10569502       7.30218364      10.01675143
C       -9.22786270       7.95713439       9.49808525
C       -9.43164617       8.03722161       8.11119424
C       -8.48766236       7.43650204       7.25967068
C      -10.62710105       8.72130588       7.50968949
H       -0.67408843       1.23170882       3.56133500
H       -2.00364992       2.61792047       5.09856181
H       -4.42840234       3.95530511       1.80792732
H       -2.79470375       1.81378158      -0.76393701
H       -2.96817705       3.56777016      -0.59199618
H       -4.33705868       2.47682142      -0.26288248
H       -6.31241706       6.19965199       9.57247303
H       -7.94860821       7.23976698      11.09089807
H       -8.62882096       7.47625517       6.18067225
H      -10.57654384       8.72786817       6.41541163
H      -10.67873394       9.76502237       7.83522631
H      -11.54674243       8.19935441       7.79261594
C      -10.15528088       8.53071527      10.43856411
C      -10.93199360       9.01108927      11.22621516
Br     -12.18787239       9.78781338      12.49978029
C        1.79682698      -1.79682698       1.79682698
C        2.28243614      -1.22283753       2.97859252
C        3.08815869      -1.96302469       3.84524299
C        3.40998416      -3.28212352       3.53477923
C        2.92524906      -3.85656759       2.35600318
C        2.12076489      -3.12111387       1.46359927
C        1.63594659      -3.82727639       0.22820082
C        4.25055428      -4.04088996       4.40832010
C        4.98666386      -4.66885621       5.11844915
C        5.96860801      -5.45713281       5.98981680
C        6.77700500      -6.06342945       6.63763988
C        7.77584257      -6.77468901       7.37348236
C        8.38175739      -6.18420019       8.48135930
C        9.38115877      -6.86916006       9.17431127
C        9.77565577      -8.14624069       8.76118589
C        9.16946289      -8.75821053       7.65238859
C        8.16583915      -8.05386648       6.96412944
C        9.56791310     -10.12355514       7.16662818
H        2.03850732      -0.19421999       3.23440494
H        3.46095133      -1.50223116       4.75694971
H        3.17957150      -4.88979397       2.12226929
H        1.20624977      -3.15605215      -0.51775360
H        0.87700943      -4.56859048       0.49835112
H        2.47188565      -4.33999439      -0.26088241
H        8.08875987      -5.18881154       8.80697068
H        9.85136110      -6.39528157      10.03263058
H        7.68776108      -8.50302125       6.09496604
H        8.94197817     -10.44919527       6.32865020
H        9.45074454     -10.86566044       7.96257765
H       10.60539470     -10.11567532       6.81764276
C       10.82240867      -8.79222512       9.50992647
C       11.69906423      -9.33323709      10.13699671
Br      13.11654213     -10.20800769      11.15091624
C       -0.00445707       0.01189536      -1.78238275
H       -0.66409135       0.67374010      -2.43557963
H        0.65740317      -0.63156657      -2.45157240
C       -0.90989263      -0.90692880      -0.91072765
C        0.90977584       0.90977584      -0.90977584
C       -0.00465871       1.77757030       0.00794375
H       -0.66225468       2.44313916      -0.64384735
H        0.64322798       2.43503045       0.67728295
C       -1.78241447       0.00034974      -0.00472694
H       -2.45427497      -0.65498947       0.64260836
H       -2.43311707       0.67328779      -0.65473579
C       -0.91132561       0.90220522       0.91563759
C       -0.01476271      -0.02253852       1.78660255
H       -0.67934791      -0.69751639       2.42135241
H        0.63392994       0.61504881       2.47327442
C        0.01484550      -1.77751727      -0.01636693
H        0.67870853      -2.42144646      -0.68295456
H       -0.62264859      -2.45592969       0.64226336
C        1.78714474       0.01002794       0.00389507
H        2.44202412       0.67113390       0.66197326
H        2.45385902      -0.65136977      -0.64189061
C        0.91606151      -0.90478549       0.90901405
