146
Properties=species:S:1:pos:R:3 pbc="F F F"
C        1.79682698       1.79682698      -1.79682698
C        1.53043336       3.17183694      -1.78159589
C        2.29532130       4.04898080      -2.55212427
C        3.33219663       3.55476852      -3.33992175
C        3.59975101       2.18267438      -3.35539444
C        2.83073815       1.28115531      -2.59358458
C        3.20129552      -0.17405160      -2.66417989
C        4.10811195       4.44492394      -4.14672845
C        4.73665289       5.18269522      -4.85462110
C        5.50561539       6.10879341      -5.80114883
C        6.07740610       6.81741792      -6.58325032
C        6.72860551       7.64259402      -7.55281441
C        6.39519879       8.99185125      -7.66026685
C        7.00848921       9.78402331      -8.63211758
C        7.95701820       9.22852666      -9.49753748
C        8.30992598       7.87326638      -9.39686965
C        7.68132051       7.08863766      -8.41387691
C        9.31551174       7.23148852     -10.31109617
Br       8.72739437      10.37298992     -10.80311812
H        0.72458861       3.57204658      -1.17049705
H        2.07373356       5.11342724      -2.53297140
H        4.41438809       1.80495476      -3.97229192
H        2.44933535      -0.83719304      -2.23240601
H        4.14701718      -0.34195261      -2.13888647
H        3.31954316      -0.47870751      -3.71016198
H        5.65362042       9.43273579      -6.99818588
H        6.73493908      10.83346693      -8.71086725
H        7.93057924       6.03256833      -8.32260080
H        9.49613615       6.18624655     -10.03744094
H       10.27750674       7.75012208     -10.25135381
H        8.95258621       7.24236993     -11.34375663
C       -1.79682698      -1.79682698      -1.79682698
C       -2.93351828      -2.35346675      -1.19688116
C       -3.79735141      -3.16432332      -1.93475165
C       -3.52927276      -3.42024625      -3.27736790
C       -2.39555007      -2.86458492      -3.87768484
C       -1.50615299      -2.05370874      -3.14561631
C       -0.32136494      -1.49037469      -3.87968418
C       -4.39936812      -4.26543895      -4.03495727
C       -5.10505721      -5.00477573      -4.66413628
C       -5.96857946      -5.98984422      -5.45713395
C       -6.60829019      -6.79962862      -6.07015552
C       -7.33264625      -7.79900998      -6.79235770
C       -8.39009887      -8.47335037      -6.18386764
C       -9.07052266      -9.47256340      -6.88154404
C       -8.69531789      -9.79845446      -8.18930999
C       -7.63784797      -9.12294337      -8.81927068
C       -6.96147376      -8.12048099      -8.10188033
C       -7.19362969      -9.44625720     -10.21820954
Br      -9.66167679     -11.18391396      -9.05791166
H       -3.15597695      -2.16148492      -0.14967037
H       -4.67361268      -3.59263294      -1.45388658
H       -2.19491082      -3.06767498      -4.92904896
H        0.43407892      -1.05718092      -3.22144633
H       -0.65200483      -0.71438557      -4.57756063
H        0.17892712      -2.28425170      -4.44567305
H       -8.68557156      -8.23395179      -5.16501874
H       -9.88906538      -9.99642944      -6.39377844
H       -6.13139345      -7.58928672      -8.56506820
H       -6.39544798      -8.77365912     -10.55071655
H       -8.02368981      -9.33274068     -10.92255213
H       -6.80360194     -10.46787131     -10.26723953
C       -1.79682698       1.79682698       1.79682698
C       -1.52917334       1.78308494       3.17160791
C       -2.28275223       2.56697792       4.04669622
C       -3.30640975       3.37039571       3.55008145
C       -3.57406739       3.38574637       2.17800607
C       -2.83188764       2.59222615       1.28136424
C       -3.18381729       2.68483501      -0.17722849
C       -4.09528337       4.16188878       4.44259219
C       -4.78467460       4.79787087       5.19142375
C       -5.70286215       5.56805007       6.14464541
C       -6.45877056       6.13256823       6.88673554
C       -7.39364552       6.76689529       7.76347312
C       -7.23734294       6.66505276       9.14492118
C       -8.17267749       7.25632392       9.99562868
C       -9.26539468       7.95134768       9.46633999
C       -9.43264371       8.07008434       8.07733397
C       -8.48263351       7.46691553       7.23428603
C      -10.59583855       8.79805439       7.46420348
Br     -10.50044790       8.70779056      10.69526395
H       -0.73232455       1.16135501       3.57345268
H       -2.06567349       2.54249649       5.11196222
H       -4.37474674       4.01913856       1.79774946
H       -2.73004633       1.90067240      -0.78617041
H       -2.86515307       3.65374496      -0.57494700
H       -4.26784503       2.58949471      -0.30634212
H       -6.39617614       6.12066163       9.56770432
H       -8.04389558       7.16399199      11.07138569
H       -8.59592584       7.53631938       6.15350316
H      -10.51795584       8.82989311       6.37197470
H      -10.63022033       9.83453024       7.81423206
H      -11.53461473       8.29241304       7.71168500
C        1.79682698      -1.79682698       1.79682698
C        2.30248564      -1.21506251       2.96631805
C        3.10965372      -1.95456564       3.83220701
C        3.41287253      -3.28072163       3.53329275
C        2.90811703      -3.86291673       2.36678607
C        2.10183724      -3.12845342       1.47518739
C        1.59485018      -3.84299245       0.25358118
C        4.25475166      -4.03912397       4.40588872
C        4.99179182      -4.66739968       5.11477771
C        5.97466605      -5.45695859       5.98393299
C        6.78351410      -6.06510696       6.62945327
C        7.78259674      -6.77939370       7.36202350
C        8.40788330      -6.18335524       8.45607835
C        9.40733546      -6.87183977       9.14545486
C        9.78251352      -8.15798564       8.74258317
C        9.15669418      -8.77550959       7.64785825
C        8.15329450      -8.06754152       6.96299905
C        9.53398642     -10.15077904       7.17333096
Br      11.16471742      -9.01460597       9.72417902
H        2.07322286      -0.18086675       3.21304264
H        3.49811867      -1.48775498       4.73425855
H        3.14797353      -4.90158926       2.14207197
H        1.16426253      -3.17539482      -0.49510903
H        0.83069160      -4.57241230       0.54084713
H        2.41922808      -4.37081484      -0.23904530
H        8.12998307      -5.18102639       8.77353263
H        9.89273226      -6.39367279       9.99286822
H        7.66017937      -8.52102073       6.10454827
H        8.89479638     -10.47870518       6.34632209
H        9.41754929     -10.88239217       7.97904116
H       10.56740927     -10.15879649       6.81250702
C       -0.00445707       0.01189536      -1.78238275
H       -0.66409135       0.67374010      -2.43557963
H        0.65740317      -0.63156657      -2.45157240
C       -0.90989263      -0.90692880      -0.91072765
C        0.90977584       0.90977584      -0.90977584
C       -0.00465871       1.77757030       0.00794375
H       -0.66225468       2.44313916      -0.64384735
H        0.64322798       2.43503045       0.67728295
C       -1.78241447       0.00034974      -0.00472694
H       -2.45427497      -0.65498947       0.64260836
H       -2.43311707       0.67328779      -0.65473579
C       -0.91132561       0.90220522       0.91563759
C       -0.01476271      -0.02253852       1.78660255
H       -0.67934791      -0.69751639       2.42135241
H        0.63392994       0.61504881       2.47327442
C        0.01484550      -1.77751727      -0.01636693
H        0.67870853      -2.42144646      -0.68295456
H       -0.62264859      -2.45592969       0.64226336
C        1.78714474       0.01002794       0.00389507
H        2.44202412       0.67113390       0.66197326
H        2.45385902      -0.65136977      -0.64189061
C        0.91606151      -0.90478549       0.90901405
