138
Properties=species:S:1:pos:R:3 pbc="F F F"
C        1.79179532       1.79179532      -1.79179532
C        1.29188490       2.99048858      -2.28732436
C        2.10042356       3.79070923      -3.09592839
C        3.41724704       3.40919704      -3.41494472
C        3.91727307       2.19015722      -2.90199741
C        3.09102927       1.38803128      -2.09527083
C        5.31182723       1.71635344      -3.21686385
C        4.22456647       4.28751662      -4.27964238
C        4.29017155       4.01283206      -5.65864766
C        5.03446280       4.81841016      -6.52151488
C        5.71951950       5.91631526      -6.01313839
C        5.66852308       6.21343007      -4.65227362
C        4.92887322       5.40392703      -3.77247073
C        4.88885251       5.76207776      -2.31002981
H        0.27978728       3.31056345      -2.05591075
H        1.69881332       4.72551157      -3.48391767
H        3.46656537       0.44532014      -1.70327936
H        5.57630399       0.83279253      -2.62594846
H        6.04756195       2.49155094      -2.98068386
H        5.38986323       1.44543245      -4.27436609
H        3.75262580       3.15815562      -6.06627440
H        5.06885751       4.58190747      -7.58137523
H        6.20676077       7.07832924      -4.27028024
H        3.88950411       6.11163368      -2.03310757
H        5.59892589       6.56230874      -2.07545392
H        5.16136255       4.90081887      -1.69216680
C        6.48565850       6.75325902      -6.89979287
C        7.12729991       7.45419941      -7.64236601
Br       8.16477981       8.58756075      -8.84304395
C       -1.79179532      -1.79179532      -1.79179532
C       -3.08305367      -1.38257455      -2.10406962
C       -3.88614795      -2.19392863      -2.90698459
C       -3.41038495      -3.41841088      -3.41259297
C       -2.09393238      -3.82299780      -3.09249752
C       -1.29674623      -3.00159371      -2.27599145
C       -1.52857202      -5.12785039      -3.58862210
C       -4.30319404      -4.23992626      -4.24860517
C       -5.02879904      -5.28555436      -3.64729788
C       -5.89338550      -6.08765842      -4.39334392
C       -6.04711175      -5.84766597      -5.75419542
C       -5.34365485      -4.81637009      -6.37420184
C       -4.46352612      -4.00752546      -5.63421940
C       -3.72827586      -2.89625681      -6.33642741
H       -3.47571538      -0.44159312      -1.72895298
H       -4.89809904      -1.86790404      -3.14223948
H       -0.28557158      -3.31005342      -2.01953987
H       -0.45947209      -5.21054728      -3.36502563
H       -1.63579376      -5.20914300      -4.67485999
H       -2.03599593      -5.96846150      -3.10520434
H       -4.91854519      -5.47734869      -2.58116194
H       -6.43965250      -6.88896337      -3.90352434
H       -5.47768645      -4.63854808      -7.43913572
H       -4.10549213      -1.92400835      -6.00474488
H       -3.86164811      -2.95298247      -7.42205797
H       -2.65306558      -2.95915026      -6.14213238
C       -6.94113228      -6.66972532      -6.52785279
C       -7.68987447      -7.35820003      -7.17579084
Br      -8.90052726      -8.47140541      -8.22345185
C       -1.79179532       1.79179532       1.79179532
C       -1.21443423       2.79921844       2.55604516
C       -2.02420972       3.59964793       3.36320352
C       -3.41803336       3.40974767       3.41360777
C       -3.99548095       2.38509866       2.62884809
C       -3.16907197       1.57946383       1.82579559
C       -5.47787043       2.11943576       2.64773833
C       -4.22485294       4.27774900       4.28912353
C       -4.56858961       3.81850130       5.57456036
C       -5.32443556       4.60500012       6.44495216
C       -5.74149618       5.86788808       6.03958889
C       -5.41182894       6.34884026       4.77355758
C       -4.65814081       5.56182040       3.88530977
C       -4.31253576       6.11907572       2.52934860
H       -0.14159150       2.96928702       2.53538295
H       -1.56277736       4.38301912       3.96244608
H       -3.60558546       0.78445491       1.22512449
H       -5.76299524       1.39205145       1.87999830
H       -6.03907340       3.03678719       2.44393616
H       -5.77734630       1.71337716       3.61893831
H       -4.24184166       2.83290377       5.90231040
H       -5.57675494       4.22453258       7.43085269
H       -5.74219433       7.34073561       4.47244030
H       -3.23986402       6.32676891       2.46761243
H       -4.84534170       7.05611216       2.33523469
H       -4.59751921       5.41877233       1.73805669
C       -6.51812431       6.68521682       6.93536926
C       -7.16855038       7.36972965       7.68558531
Br      -8.22023431       8.47652899       8.89862123
C        1.79179532      -1.79179532       1.79179532
C        3.07962764      -1.37799295       2.11207725
C        3.88276174      -2.18934600       2.91495344
C        3.41041245      -3.41842112       3.41255523
C        2.09740133      -3.82767117       3.08435521
C        1.30019164      -3.00617645       2.26796329
C        1.53588044      -5.13749087       3.57167320
C        4.30315188      -4.23967008       4.24890351
C        5.03649846      -5.27903013       3.64612270
C        5.90134679      -6.08057624       4.39246480
C        6.04754630      -5.84628828       5.75513857
C        5.33632714      -4.82124436       6.37665528
C        4.45587659      -4.01305942       5.63633497
C        3.71210140      -2.90858168       6.34027701
H        3.46960233      -0.43341835       1.74324080
H        4.89204724      -1.85968626       3.15650905
H        0.29169922      -3.31816804       2.00529761
H        0.46824447      -5.22415169       3.34264882
H        1.63838209      -5.22340349       4.65801117
H        2.04952976      -5.97341936       3.08671266
H        4.93215890      -5.46630749       2.57858944
H        6.45368294      -6.87698682       3.90147045
H        5.46451549      -4.64782167       7.44303309
H        4.08627948      -1.93301822       6.01494767
H        3.84063991      -2.96980221       7.42624643
H        2.63812416      -2.97560646       6.14061761
C        6.94179254      -6.66778130       6.52913655
C        7.69072376      -7.35578170       7.17735987
Br       8.90168221      -8.46822017       8.22548214
C       -0.00445707       0.01189536      -1.78238275
H       -0.66409135       0.67374010      -2.43557963
H        0.65740317      -0.63156657      -2.45157240
C       -0.90989263      -0.90692880      -0.91072765
C        0.90977584       0.90977584      -0.90977584
C       -0.00465871       1.77757030       0.00794375
H       -0.66225468       2.44313916      -0.64384735
H        0.64322798       2.43503045       0.67728295
C       -1.78241447       0.00034974      -0.00472694
H       -2.45427497      -0.65498947       0.64260836
H       -2.43311707       0.67328779      -0.65473579
C       -0.91132561       0.90220522       0.91563759
C       -0.01476271      -0.02253852       1.78660255
H       -0.67934791      -0.69751639       2.42135241
H        0.63392994       0.61504881       2.47327442
C        0.01484550      -1.77751727      -0.01636693
H        0.67870853      -2.42144646      -0.68295456
H       -0.62264859      -2.45592969       0.64226336
C        1.78714474       0.01002794       0.00389507
H        2.44202412       0.67113390       0.66197326
H        2.45385902      -0.65136977      -0.64189061
C        0.91606151      -0.90478549       0.90901405
