146
Properties=species:S:1:pos:R:3 pbc="F F F"
C        1.79189792       1.79189792      -1.79189792
C        1.55025546       3.16098217      -1.85959021
C        2.35282116       3.96287721      -2.67324860
C        3.39571326       3.39782745      -3.41780050
C        3.64682373       2.01476469      -3.34534622
C        2.83053017       1.21754897      -2.52562257
C        4.75441899       1.37200244      -4.13487530
C        4.17785496       4.25274752      -4.26148094
C        4.82488829       4.94402742      -4.99859267
C        5.64122520       5.78636689      -5.98194982
C        6.27134152       6.40746274      -6.79391564
C        7.00237840       7.12286887      -7.79703668
C        6.71745685       8.48273381      -7.97870300
C        7.38273692       9.22433340      -8.95670537
C        8.33885616       8.60472935      -9.75461587
C        8.63682536       7.25331339      -9.58048284
C        7.97154977       6.49369625      -8.60080212
C        8.34727432       5.04274658      -8.46351024
Br       9.23853218       9.59980535     -11.08636796
H        0.74191428       3.61217213      -1.29059494
H        2.15558409       5.03153914      -2.72712074
H        3.00530724       0.14562392      -2.46350123
H        4.83589409       0.30218277      -3.91496078
H        5.71760866       1.82969066      -3.88576380
H        4.56618051       1.47643772      -5.20832938
H        5.96796004       8.97296368      -7.36038003
H        7.14555874      10.27669087      -9.08733301
H        9.38804984       6.77998316     -10.20975924
H        7.73620630       4.50633768      -7.73335334
H        9.39227810       4.95854184      -8.14717471
H        8.22389347       4.53316356      -9.42513935
C       -1.79189792      -1.79189792      -1.79189792
C       -2.96727477      -1.27468114      -2.32887193
C       -3.77536436      -2.08605942      -3.12752320
C       -3.40938596      -3.41215676      -3.38979849
C       -2.21755056      -3.93531336      -2.85407071
C       -1.41417548      -3.11025730      -2.04926893
C       -1.79514081      -5.35638910      -3.10976682
C       -4.28146719      -4.21871248      -4.19190375
C       -5.01187444      -4.92140961      -4.83422434
C       -5.93936511      -5.85888534      -5.61129146
C       -6.66156825      -6.63284010      -6.17831155
C       -7.52873161      -7.57977163      -6.81378071
C       -8.77290682      -7.13026620      -7.27572064
C       -9.66772568      -8.01352088      -7.88252913
C       -9.31629621      -9.35115380      -8.03075138
C       -8.07859975      -9.81090399      -7.58111785
C       -7.16889954      -8.93211545      -6.96503314
C       -5.84924923      -9.49463065      -6.50965126
Br     -10.52532890     -10.55521142      -8.84416516
H       -3.26560694      -0.24887962      -2.13019479
H       -4.69614550      -1.67844244      -3.53965603
H       -0.49355652      -3.50028722      -1.62058865
H       -0.82003326      -5.57260468      -2.66039971
H       -1.70600551      -5.54165024      -4.18540737
H       -2.52117390      -6.05245542      -2.67731829
H       -9.05579652      -6.08580068      -7.15970655
H      -10.63046741      -7.64885249      -8.23026272
H       -7.81422413     -10.85939395      -7.70417416
H       -5.23116563      -8.76736960      -5.97736210
H       -5.27728804      -9.84573659      -7.37497001
H       -6.01767654     -10.33580887      -5.82871098
C       -1.79189792       1.79189792       1.79189792
C       -2.42195716       2.90531908       1.24355160
C       -3.22046038       3.71410396       2.05438264
C       -3.38970952       3.41059816       3.41103353
C       -2.75963626       2.28103998       3.96625841
C       -1.95600609       1.47650784       3.14118778
C       -2.91400164       1.92703564       5.42025945
C       -4.19555749       4.28271762       4.21380831
C       -4.83964061       5.01629016       4.91157762
C       -5.61663246       5.95244735       5.84046210
C       -6.18134335       6.68595017       6.60542638
C       -6.81323013       7.57012670       7.53892712
C       -7.36875584       8.76002780       7.05011002
C       -7.97707204       9.66969400       7.91700965
C       -8.03282558       9.38748912       9.27788668
C       -7.48938562       8.20396737       9.77726860
C       -6.87073438       7.28021911       8.91509465
C       -6.31136725       6.02115316       9.52101073
Br      -8.84772305      10.61753740      10.45944503
H       -2.29609412       3.15505240       0.19353483
H       -3.70567267       4.58667016       1.62190114
H       -1.45525325       0.60399330       3.55518583
H       -2.39888217       0.99142196       5.66273352
H       -3.97128999       1.79080877       5.67096436
H       -2.48672673       2.71373188       6.05048900
H       -7.32542779       8.98885366       5.98702231
H       -8.39815877      10.59000305       7.52142080
H       -7.54057121       7.99344859      10.84377243
H       -5.78469215       5.39223744       8.79896775
H       -7.12257419       5.42434541       9.95107504
H       -5.59681877       6.27359348      10.31178413
C        1.79189792      -1.79189792       1.79189792
C        1.77026812      -1.62676839       3.17379133
C        2.58392788      -2.42868683       3.97633227
C        3.41761403      -3.39462466       3.39910251
C        3.43581312      -3.56864189       2.00247963
C        2.61505416      -2.75364361       1.20500393
C        4.32234971      -4.59209971       1.34684732
C        4.25710672      -4.17761513       4.25736157
C        4.99150431      -4.82227626       4.95372782
C        5.97290216      -5.63096259       5.80567716
C        6.78478206      -6.25058254       6.43735531
C        7.78789158      -6.96579084       7.16860153
C        7.87786584      -6.75073488       8.55029295
C        8.85068427      -7.40329398       9.30979745
C        9.73551470      -8.27664373       8.68604296
C        9.65334352      -8.50478288       7.31249519
C        8.67984047      -7.85127466       6.53493301
C        8.64436387      -8.14912410       5.06004316
Br      11.06065535      -9.15816058       9.70588955
H        1.13143426      -0.87839706       3.63485002
H        2.56757465      -2.29114405       5.05552527
H        2.62206004      -2.86906113       0.12331122
H        4.16653604      -4.62328893       0.26321267
H        4.10483131      -5.59243722       1.73579459
H        5.37572474      -4.35165340       1.52356948
H        7.19113577      -6.06599089       9.04417710
H        8.90941767      -7.22078202      10.37938292
H       10.35016552      -9.19162908       6.83599763
H        7.91049280      -7.54891987       4.51648466
H        8.39430223      -9.20325283       4.90043958
H        9.62370853      -7.94382691       4.61466094
C       -0.00445707       0.01189536      -1.78238275
H       -0.66409135       0.67374010      -2.43557963
H        0.65740317      -0.63156657      -2.45157240
C       -0.90989263      -0.90692880      -0.91072765
C        0.90977584       0.90977584      -0.90977584
C       -0.00465871       1.77757030       0.00794375
H       -0.66225468       2.44313916      -0.64384735
H        0.64322798       2.43503045       0.67728295
C       -1.78241447       0.00034974      -0.00472694
H       -2.45427497      -0.65498947       0.64260836
H       -2.43311707       0.67328779      -0.65473579
C       -0.91132561       0.90220522       0.91563759
C       -0.01476271      -0.02253852       1.78660255
H       -0.67934791      -0.69751639       2.42135241
H        0.63392994       0.61504881       2.47327442
C        0.01484550      -1.77751727      -0.01636693
H        0.67870853      -2.42144646      -0.68295456
H       -0.62264859      -2.45592969       0.64226336
C        1.78714474       0.01002794       0.00389507
H        2.44202412       0.67113390       0.66197326
H        2.45385902      -0.65136977      -0.64189061
C        0.91606151      -0.90478549       0.90901405
