125
Properties=species:S:1:pos:R:3 pbc="F F F"
C        0.00000000       0.00000000       0.00000000
C        0.88199389       0.88199389      -0.88199389
C        0.64035144       2.25107815      -0.94968618
C        1.44291714       3.05297318      -1.76334458
C        2.48580924       2.48792343      -2.50789647
C        2.73691970       1.10486067      -2.43544220
C        1.92062615       0.30764494      -1.61571854
C        3.84451497       0.46209841      -3.22497128
C        3.26795094       3.34284350      -3.35157692
C        3.91498427       4.03412340      -4.08868865
C        4.73132118       4.87646287      -5.07204579
C        5.36143749       5.49755872      -5.88401162
C        6.09247437       6.21296485      -6.88713265
C        5.80755283       7.57282979      -7.06879897
C        6.47283289       8.31442937      -8.04680135
C        7.42895214       7.69482533      -8.84471185
C        7.72692133       6.34340937      -8.67057881
C        7.06164575       5.58379223      -7.69089809
C        7.43737029       4.13284255      -7.55360622
Br       8.32862815       8.68990132     -10.17646394
H       -0.16798974       2.70226810      -0.38069091
H        1.24568007       4.12163511      -1.81721672
H        2.09540322      -0.76428011      -1.55359721
H        3.92599007      -0.60772125      -3.00505676
H        4.80770463       0.91978663      -2.97585978
H        3.65627649       0.56653370      -4.29842535
H        5.05805602       8.06305966      -6.45047601
H        6.23565471       9.36678685      -8.17742899
H        8.47814581       5.87007913      -9.29985521
H        6.82630228       3.59643366      -6.82344932
H        8.48237407       4.04863781      -7.23727068
H        7.31398945       3.62325954      -8.51523533
C       -0.88199389      -0.88199389      -0.88199389
C       -2.05827407      -0.36532569      -1.41751601
C       -2.86635275      -1.17671206      -2.21617010
C       -2.49946275      -2.50226953      -2.47989686
C       -1.30672002      -3.02486236      -1.94564019
C       -0.50336229      -2.19980753      -1.14081981
C       -0.88331163      -4.44535538      -2.20291765
C       -3.37154012      -3.30888529      -3.28194594
C       -4.10189553      -4.01165796      -3.92424282
C       -5.02924857      -4.94926265      -4.70131861
C       -5.75127419      -5.72335041      -5.26838323
C       -6.61817034      -6.67048052      -5.90392101
C       -7.86312640      -6.22164698      -6.36440821
C       -8.75770803      -7.10514859      -6.97120699
C       -8.40525921      -8.44235190      -7.12087821
C       -7.16678368      -8.90142520      -6.67270064
C       -6.25730891      -8.02238492      -6.05664224
C       -4.93678655      -8.58415775      -5.60287476
Br      -9.61395669      -9.64674870      -7.93428802
H       -2.35731500       0.66004875      -1.21770302
H       -3.78783632      -0.76953214      -2.62716344
H        0.41795822      -2.58941474      -0.71326379
H        0.09236615      -4.66111934      -1.75457239
H       -0.79494055      -4.62961770      -3.27879279
H       -1.60837635      -5.14241493      -1.77044425
H       -8.14681181      -5.17752443      -6.24725544
H       -9.72106008      -6.74100845      -7.31780202
H       -6.90161493      -9.94958203      -6.79688320
H       -4.31887017      -7.85682323      -5.07049185
H       -4.36526728      -8.93403078      -6.46898451
H       -5.10390827      -9.42606367      -4.92251237
C       -0.88199389       0.88199389       0.88199389
C       -2.26491438       0.72783425       0.84836714
C       -3.06854092       1.54134778       1.64934621
C       -2.49129818       2.50714690       2.48318406
C       -1.09269186       2.65997958       2.52455112
C       -0.29454177       1.83777824       1.71166962
C       -0.43769366       3.69021018       3.40368082
C       -3.35420674       3.33979774       3.26836687
C       -4.05849674       4.06909044       3.91020913
C       -4.92614381       5.04544062       4.70824541
C       -5.57558352       5.85476762       5.31265669
C       -6.33344299       6.85422574       6.00490315
C       -7.73076931       6.80616262       5.91224966
C       -8.51916966       7.76735157       6.54754238
C       -7.90838603       8.77923988       7.28086341
C       -6.51875219       8.83556759       7.38658973
C       -5.71245477       7.87514495       6.74873635
C       -4.22070127       7.99287773       6.91024005
Br      -8.96833722      10.08910463       8.13755156
H       -2.72653010      -0.01458759       0.20302677
H       -4.14931512       1.42069343       1.61452335
H        0.78770136       1.94731683       1.72510484
H        0.65444541       3.63056558       3.34720541
H       -0.71838591       3.53430121       4.45066393
H       -0.73127103       4.69786700       3.09209751
H       -8.21509692       6.01934737       5.33714740
H       -9.60120615       7.71782594       6.46083845
H       -6.05243175       9.63111313       7.96453528
H       -3.66427714       7.25525861       6.32664951
H       -3.94961341       7.85626898       7.96240018
H       -3.88725976       8.98319294       6.58203162
C        0.88199389      -0.88199389       0.88199389
C        0.32612178      -1.97585435       1.53913964
C        1.13318147      -2.77483690       2.35121653
C        2.49382690      -2.48171351       2.50608873
C        3.05995897      -1.38050482       1.83675878
C        2.23718533      -0.58194292       1.02486138
C        4.51605536      -1.03194665       1.98358265
C        3.28026363      -3.31136782       3.37073991
C        3.95038547      -3.97308026       4.11433059
C        4.82464892      -4.76726884       5.08791208
C        5.52790542      -5.34038345       5.87471895
C        6.36895076      -5.98425392       6.83936719
C        5.82175496      -7.02241960       7.60500703
C        6.58804018      -7.67057318       8.57545026
C        7.90770756      -7.28125796       8.77952379
C        8.46704744      -6.25357634       8.02028573
C        7.70497396      -5.59000492       7.04135718
C        8.37398594      -4.49493511       6.25489801
Br       8.94964885      -8.14841962      10.09692495
H       -0.72892456      -2.21251502       1.43137882
H        0.69209527      -3.62503812       2.86739850
H        2.65615848       0.27764054       0.50620238
H        4.79091419      -0.18050603       1.35190535
H        5.14423998      -1.87684872       1.68226234
H        4.73943815      -0.76118435       3.02061304
H        4.78883584      -7.32965838       7.45309746
H        6.14601076      -8.47017592       9.16368386
H        9.50118865      -5.95894205       8.18794946
H        7.69647386      -3.98176216       5.56794924
H        9.19428515      -4.91240901       5.66158841
H        8.77666031      -3.73864518       6.93717883
