178
Properties=species:S:1:pos:R:3 pbc="F F F"
C        1.82727544       1.82727544      -1.82727544
H        2.44193236       1.13113391      -2.40851049
N        2.69102596       2.57778872      -0.95167030
C        3.81554467       3.21996785      -1.42684066
O        4.11575938       3.23494280      -2.61422184
C        4.67411513       3.85829803      -0.31621627
H        4.01416697       4.42925412       0.34656582
N        5.33345442       2.79063333       0.46100860
C        5.72979480       4.79131836      -0.89684945
C        0.97366614       2.68032852      -2.77245561
C        0.08569807       3.72606283      -2.08025936
C       -0.53169452       4.71847574      -3.06957592
H        0.24142864       5.28365576      -3.59957359
N       -1.45710295       4.10714509      -3.98837278
C       -1.15718484       3.94244912      -5.32441376
O       -0.07357942       4.25214462      -5.80750023
C       -2.34228549       3.40359932      -6.15251273
H       -2.85039575       2.62604311      -5.57088247
N       -3.29117147       4.50380644      -6.41239183
C       -1.87169931       2.80816696      -7.47334976
H        2.50944641       2.54288272       0.04190061
H        6.00882790       2.31933249      -0.14474109
H        4.65526815       2.07704721       0.72052337
H        6.39911112       4.26813085      -1.58984852
H        6.34195085       5.23739927      -0.10536461
H        5.25594759       5.60695884      -1.45519649
H        1.63933656       3.19995526      -3.47232878
H        0.34296023       2.01944811      -3.38037146
H        0.68239605       4.28267731      -1.34691737
H       -0.70934187       3.21903569      -1.51941083
H       -2.38391644       3.88227476      -3.65176821
H       -2.83890156       5.18079886      -7.03132632
H       -3.47738490       5.01188856      -5.54898610
H       -1.36371598       3.55156896      -8.09856405
H       -2.71368013       2.40239091      -8.04456092
H       -1.16217709       1.99294899      -7.29390296
C       -1.28327913       5.69172818      -2.32024271
C       -1.91273125       6.50682710      -1.69267615
Br      -2.93050208       7.82477312      -0.67795410
C       -1.82727544      -1.82727544      -1.82727544
H       -2.76605846      -1.27417110      -1.94134720
N       -2.09561427      -3.03542390      -1.08944681
C       -3.11069459      -3.89359419      -1.45806439
O       -3.80255571      -3.71033617      -2.45203215
C       -3.31877697      -5.05947346      -0.47037900
H       -2.34217354      -5.50488521      -0.24979652
N       -3.90522462      -4.53734642       0.77949188
C       -4.23536269      -6.12689171      -1.05570820
C       -1.18181702      -2.04399301      -3.20064024
C        0.13172142      -2.84115917      -3.18258251
C        0.58508541      -3.25642724      -4.58501531
H       -0.15407525      -3.90528298      -5.06529976
N        0.92894099      -2.13997205      -5.42738385
C        0.13790286      -1.75724750      -6.49033341
O       -0.92856118      -2.30032340      -6.75718086
C        0.76595809      -0.63586272      -7.34392193
H        1.23136950       0.09520010      -6.67309943
N        1.80632749      -1.21590499      -8.21544929
C       -0.28323461       0.06824104      -8.19482385
H       -1.58490926      -3.19368856      -0.23183070
H       -4.84964133      -4.20152942       0.57826928
H       -3.38642377      -3.72003280       1.09466459
H       -5.21897233      -5.71996306      -1.31815511
H       -4.38618165      -6.94994158      -0.34859150
H       -3.80142491      -6.54556831      -1.97110970
H       -1.89721626      -2.56983096      -3.84457338
H       -1.00352825      -1.06859118      -3.67066037
H        0.00224469      -3.74294457      -2.57129084
H        0.91653837      -2.24453339      -2.70110963
H        1.82386025      -1.69174774      -5.28223904
H        1.35184812      -1.82710708      -8.89796466
H        2.41369737      -1.82641434      -7.67077278
H       -0.77293735      -0.62094951      -8.89253015
H        0.16324887       0.88114618      -8.77766674
H       -1.06459216       0.49908891      -7.55917161
C        1.77815762      -4.05216174      -4.45468764
C        2.77735560      -4.71858939      -4.34553822
Br       4.39297422      -5.79614652      -4.16905283
C       -1.82727544       1.82727544       1.82727544
H       -2.18759939       2.62523903       1.16873835
N       -0.97601978       2.41310402       2.83136118
C       -1.38583488       3.49730540       3.57921290
O       -2.50277189       3.98872087       3.47343127
C       -0.28720719       4.05449739       4.50692486
H        0.16727260       3.21662648       5.04750139
N        0.74624185       4.71977341       3.68954759
C       -0.85897229       5.04749589       5.51149443
C       -3.01617842       1.03193925       2.37833261
C       -2.64620880      -0.10166674       3.34747820
C       -3.86766736      -0.67931775       4.06800754
H       -4.36856859       0.08265244       4.67343696
N       -4.79346826      -1.33801944       3.18296610
C       -6.02499464      -0.79584366       2.88052707
O       -6.39217970       0.29773674       3.29614899
C       -6.91206421      -1.73353393       2.03529628
H       -6.28669086      -2.21523904       1.27507802
N       -7.48835296      -2.77332466       2.90999849
C       -8.03129650      -0.96543735       1.34395827
H       -0.02757155       2.07301633       2.90984064
H        0.33273297       5.54866967       3.25696477
H        1.02221725       4.11751670       2.91649253
H       -1.34964376       5.89272625       5.01472048
H       -0.07450127       5.44613964       6.16407382
H       -1.60964343       4.56237589       6.14608360
H       -3.69048996       1.72444893       2.89668171
H       -3.58800854       0.61512017       1.53965108
H       -1.93935362       0.27580742       4.09682969
H       -2.12822551      -0.89860766       2.79948681
H       -4.56084840      -2.26617755       2.85545568
H       -8.14113493      -2.32525550       3.55734418
H       -6.75933916      -3.17418584       3.49833644
H       -8.69340419      -0.47155936       2.06457219
H       -8.64095262      -1.63123118       0.72355025
H       -7.61614562      -0.18649975       0.69502898
C       -3.41006759      -1.67916864       4.99779281
C       -3.02682778      -2.51654376       5.77648798
Br      -2.40716143      -3.87050850       7.03557221
C        1.82727544      -1.82727544       1.82727544
H        1.29499303      -2.78168659       1.90489715
N        1.86805984      -1.21943624       3.13298890
C        2.30496681      -1.91833270       4.23905367
O        2.72846509      -3.06560149       4.17085744
C        2.15226816      -1.13674181       5.55961946
H        2.55508767      -0.12817030       5.41359730
N        0.71998497      -1.04006168       5.90303251
C        2.90389215      -1.81630465       6.69776581
C        3.19870751      -2.04850079       1.17924197
C        4.06377345      -0.78592528       1.04232152
C        5.50762983      -1.10457965       0.64414767
H        5.99966236      -1.72603491       1.39896073
N        5.62249564      -1.68490569      -0.66898641
C        5.95274835      -3.01107680      -0.85414711
O        6.11707478      -3.79326623       0.07572443
C        6.16548925      -3.38436439      -2.33602708
H        5.39383127      -2.88848384      -2.93578528
N        7.49166494      -2.90401371      -2.77065186
C        6.06909303      -4.88967873      -2.54895435
H        1.47476347      -0.29475098       3.24091408
H        0.37519052      -1.97774025       6.11997070
H        0.18573260      -0.73371557       5.09234380
H        2.55232402      -2.84146574       6.86330074
H        2.78736087      -1.26191055       7.63544332
H        3.97492385      -1.87199922       6.47117984
H        3.75240121      -2.78480747       1.77441191
H        3.05826607      -2.49690080       0.18761292
H        4.07136883      -0.24425778       1.99636411
H        3.61530909      -0.11231253       0.30148303
H        5.54845772      -1.07083617      -1.46916737
H        8.20765458      -3.43714253      -2.27157350
H        7.62327322      -1.93719932      -2.47698278
H        6.82943399      -5.43278420      -1.97580117
H        6.19327140      -5.14653366      -3.60653337
H        5.09009913      -5.25961919      -2.22504347
C        6.24787044       0.13014412       0.61096544
C        6.86782195       1.16422527       0.58317533
Br       7.87023111       2.83624704       0.53824106
C       -0.00445707       0.01189536      -1.78238275
H       -0.66409135       0.67374010      -2.43557963
H        0.65740317      -0.63156657      -2.45157240
C       -0.90989263      -0.90692880      -0.91072765
C        0.90977584       0.90977584      -0.90977584
C       -0.00465871       1.77757030       0.00794375
H       -0.66225468       2.44313916      -0.64384735
H        0.64322798       2.43503045       0.67728295
C       -1.78241447       0.00034974      -0.00472694
H       -2.45427497      -0.65498947       0.64260836
H       -2.43311707       0.67328779      -0.65473579
C       -0.91132561       0.90220522       0.91563759
C       -0.01476271      -0.02253852       1.78660255
H       -0.67934791      -0.69751639       2.42135241
H        0.63392994       0.61504881       2.47327442
C        0.01484550      -1.77751727      -0.01636693
H        0.67870853      -2.42144646      -0.68295456
H       -0.62264859      -2.45592969       0.64226336
C        1.78714474       0.01002794       0.00389507
H        2.44202412       0.67113390       0.66197326
H        2.45385902      -0.65136977      -0.64189061
C        0.91606151      -0.90478549       0.90901405
