114
Properties=species:S:1:pos:R:3 pbc="F F F"
C        1.79121561       1.79121561      -1.79121561
C        1.21714738       2.80371424      -2.55371413
C        2.02765781       3.61041626      -3.36015684
C        3.41436674       3.42419194      -3.40711926
C        3.96909604       2.39156281      -2.63540356
C        3.16603325       1.57954358      -1.82829814
N        4.26234282       4.18603505      -4.22905690
C        4.02455139       4.92478502      -5.40040815
C        2.98680975       4.62557680      -6.29069636
C        2.75870891       5.41193877      -7.42537458
C        3.56731711       6.51697348      -7.67326653
Br       3.26042076       7.58413405      -9.20184491
C        4.60149818       6.83886123      -6.79956183
C        4.82441927       6.04639411      -5.66926303
H        0.14517688       2.98017517      -2.52747755
H        1.56070340       4.41237304      -3.92469967
H        5.03938949       2.20206085      -2.66524441
H        3.62262688       0.78768527      -1.24105104
H        5.21673599       4.24721458      -3.88912488
H        2.36136637       3.75136712      -6.13080724
H        1.95266314       5.14851630      -8.10505107
H        5.23456459       7.70270260      -6.98219357
H        5.62608834       6.32169340      -4.98829027
C       -1.79121561      -1.79121561      -1.79121561
C       -3.15951041      -1.86544954      -1.54961580
C       -3.96496351      -2.67368428      -2.35958313
C       -3.41926238      -3.40538452      -3.42103104
C       -2.03561651      -3.32052033      -3.63992556
C       -1.22319803      -2.51673005      -2.83394689
N       -4.18316492      -4.25711311      -4.23715674
C       -5.41037358      -4.90935044      -4.03002054
C       -5.87678222      -5.26665209      -2.75964860
C       -7.12412670      -5.87851519      -2.59338038
C       -7.92327341      -6.12975976      -3.70452395
Br      -9.61005738      -6.95188957      -3.48445276
C       -7.48452765      -5.77797777      -4.97741582
C       -6.23562076      -5.16921232      -5.13524333
H       -3.61319196      -1.29860738      -0.74103025
H       -5.03426545      -2.69386397      -2.16964670
H       -1.57317063      -3.89347810      -4.44004601
H       -0.15499228      -2.46978639      -3.02658452
H       -3.79507361      -4.39288235      -5.16511950
H       -5.25697782      -5.10476483      -1.88179807
H       -7.45499337      -6.15533363      -1.59590351
H       -8.10383973      -5.96548328      -5.85013775
H       -5.91540005      -4.88577441      -6.13489755
C       -1.79121561       1.79121561       1.79121561
C       -1.20906174       2.74406178       2.62145224
C       -2.01955353       3.55094343       3.42773396
C       -3.41362926       3.42448074       3.40756795
C       -3.97692594       2.45107641       2.56806005
C       -3.17406389       1.63924544       1.76056565
N       -4.26410427       4.18758984       4.22574065
C       -4.04730491       4.86475765       5.43768201
C       -3.06362244       4.48241496       6.35704550
C       -2.85285292       5.20908918       7.53408017
C       -3.62406499       6.33733981       7.79615233
Br      -3.34018437       7.32409473       9.38212062
C       -4.60396631       6.74145860       6.89449633
C       -4.81001859       6.00827567       5.72178215
H       -0.13046412       2.87383708       2.64852839
H       -1.54447330       4.30677968       4.04652314
H       -5.05456218       2.30805753       2.54407504
H       -3.63736933       0.89399251       1.12000134
H       -5.19905645       4.30532673       3.84869227
H       -2.46934077       3.58893443       6.18526552
H       -2.08958753       4.88165386       8.23498912
H       -5.20730330       7.62396360       7.08819386
H       -5.56835455       6.34742664       5.02029081
C        1.79121561      -1.79121561       1.79121561
C        3.17503643      -1.74681773       1.65272160
C        3.98037968      -2.55538996       2.46246127
C        3.41804765      -3.40560227       3.42202803
C        2.01977900      -3.43876721       3.53751619
C        1.20756863      -2.63543175       2.73087460
N        4.18503561      -4.26091718       4.23148196
C        5.47132251      -4.80415659       4.07426547
C        6.05522528      -5.02612345       2.82173418
C        7.35540665      -5.53095729       2.70965832
C        8.08902157      -5.80975590       3.85877965
Br       9.84649616      -6.48755395       3.71234960
C        7.53287284      -5.59146698       5.11558141
C        6.23199300      -5.08916572       5.21891769
H        3.64043021      -1.08699381       0.92540557
H        5.05893532      -2.48298838       2.35585242
H        1.54676400      -4.10464514       4.25528560
H        0.12781176      -2.68135418       2.84219725
H        3.74244920      -4.49671636       5.11390989
H        5.48999339      -4.84141963       1.91212771
H        7.77843798      -5.70409952       1.72369302
H        8.09999284      -5.80127694       6.01819098
H        5.81887062      -4.90883973       6.20836165
C       -0.00445707       0.01189536      -1.78238275
H       -0.66409135       0.67374010      -2.43557963
H        0.65740317      -0.63156657      -2.45157240
C       -0.90989263      -0.90692880      -0.91072765
C        0.90977584       0.90977584      -0.90977584
C       -0.00465871       1.77757030       0.00794375
H       -0.66225468       2.44313916      -0.64384735
H        0.64322798       2.43503045       0.67728295
C       -1.78241447       0.00034974      -0.00472694
H       -2.45427497      -0.65498947       0.64260836
H       -2.43311707       0.67328779      -0.65473579
C       -0.91132561       0.90220522       0.91563759
C       -0.01476271      -0.02253852       1.78660255
H       -0.67934791      -0.69751639       2.42135241
H        0.63392994       0.61504881       2.47327442
C        0.01484550      -1.77751727      -0.01636693
H        0.67870853      -2.42144646      -0.68295456
H       -0.62264859      -2.45592969       0.64226336
C        1.78714474       0.01002794       0.00389507
H        2.44202412       0.67113390       0.66197326
H        2.45385902      -0.65136977      -0.64189061
C        0.91606151      -0.90478549       0.90901405
