101
Properties=species:S:1:pos:R:3 pbc="F F F"
C        0.00000000       0.00000000       0.00000000
C        0.88131159       0.88131159      -0.88131159
C        0.30724335       1.89381022      -1.64381011
C        1.11775379       2.70051224      -2.45025281
C        2.50446272       2.51428791      -2.49721524
C        3.05919201       1.48165878      -1.72549953
C        2.25612923       0.66963956      -0.91839411
N        3.35243879       3.27613102      -3.31915287
C        3.11464737       4.01488100      -4.49050413
C        2.07690572       3.71567278      -5.38079233
C        1.84880489       4.50203475      -6.51547056
C        2.65741309       5.60706946      -6.76336251
C        3.69159416       5.92895720      -5.88965780
C        3.91451524       5.13649009      -4.75935901
H       -0.76472715       2.07027114      -1.61757352
H        0.65079938       3.50246902      -3.01479565
H        4.12948546       1.29215682      -1.75534039
H        2.71272285      -0.12221876      -0.33114701
H        4.30683197       3.33731056      -2.97922086
H        1.45146235       2.84146309      -5.22090321
H        1.04275912       4.23861228      -7.19514705
H        4.32466056       6.79279857      -6.07228955
H        4.71618431       5.41178938      -4.07838624
C        2.42350441       6.42043239      -7.92840649
C        2.22760589       7.10162385      -8.90413082
Br       1.91085455       8.20305282     -10.48179454
C       -0.88131159      -0.88131159      -0.88131159
C       -2.22834487      -1.04378000      -0.57273881
C       -3.03390202      -1.85176979      -1.38284703
C       -2.51018441      -2.49542815      -2.51035331
C       -1.14714511      -2.32270156      -2.79650366
C       -0.33463058      -1.51854826      -1.99098406
N       -3.27237121      -3.34416090      -3.33119058
C       -4.45031292      -4.07332704      -3.09639254
C       -4.82626422      -4.52206734      -1.82503927
C       -6.02866455      -5.20994785      -1.62769779
C       -6.87383529      -5.44641998      -2.70758978
C       -6.52531621      -5.00458299      -3.98030996
C       -5.32072806      -4.32014743      -4.16948885
H       -2.66566505      -0.54613685       0.28868439
H       -4.08851076      -1.94107293      -1.13848036
H       -0.70029649      -2.82640125      -3.65028494
H        0.71733140      -1.40247813      -2.23650437
H       -2.92967753      -3.40935644      -4.28432941
H       -4.16814464      -4.37238419      -0.97329982
H       -6.28880417      -5.55661573      -0.63109854
H       -7.18131682      -5.18005155      -4.82838031
H       -5.07167126      -3.96735470      -5.16733398
C       -8.11354927      -6.15119783      -2.50759619
C       -9.15180973      -6.74144927      -2.34010155
Br     -10.83058908      -7.69583594      -2.06927690
C       -0.88131159       0.88131159       0.88131159
C       -0.42373545       1.29138851       2.12973972
C       -1.23360145       2.09978081       2.93513658
C       -2.49859431       2.51496884       2.50240272
C       -2.94135291       2.08199620       1.24300121
C       -2.13911925       1.27238245       0.43266120
N       -3.35999388       3.29629660       3.29143221
C       -3.44285138       3.49759399       4.67958712
C       -3.01364953       2.54687691       5.61284440
C       -3.07574119       2.80364060       6.98692840
C       -3.56210228       4.02642137       7.43932140
C       -3.98883768       4.99041192       6.53095956
C       -3.92588691       4.72495651       5.15952093
H        0.55910792       0.99551711       2.48670833
H       -0.84391131       2.43057735       3.89357539
H       -3.92799033       2.36492027       0.88407208
H       -2.50739520       0.95232135      -0.53806544
H       -4.01879659       3.85060947       2.75395732
H       -2.65651551       1.57527596       5.28203719
H       -2.74615651       2.04188728       7.68847465
H       -4.36512525       5.94987242       6.87475102
H       -4.24778372       5.49543075       4.46314546
C       -3.62441779       4.29530323       8.85262226
C       -3.67660704       4.52049178      10.03626174
Br      -3.76099264       4.88460262      11.95010665
C        0.88131159      -0.88131159       0.88131159
C        1.95779903      -1.56383216       0.32323250
C        2.76430379      -2.37046896       1.13374609
C        2.51389558      -2.49675817       2.50531213
C        1.41779374      -1.80503376       3.04352283
C        0.60559121      -0.99837121       2.24020048
N        3.27462801      -3.32292321       3.35017147
C        4.08255497      -4.44360401       3.09387352
C        3.87946762      -5.29344889       2.00045432
C        4.73255809      -6.37573782       1.75801429
C        5.80838031      -6.61068186       2.60878288
C        6.03510586      -5.77610255       3.69900076
C        5.17639810      -4.69821426       3.93575197
H        2.18430752      -1.47467755      -0.73586756
H        3.61553455      -2.87113891       0.68139059
H        1.17854046      -1.89832892       4.10011329
H       -0.23621846      -0.47403846       2.68383111
H        3.27225788      -3.02935132       4.32175418
H        3.02951914      -5.14443821       1.33987130
H        4.54327067      -7.02552917       0.90771859
H        6.87549834      -5.94868828       4.36556207
H        5.37767881      -4.04633342       4.78234771
C        6.69022850      -7.72166166       2.36045313
C        7.42877636      -8.65210723       2.15247696
Br       8.62294579     -10.15655903       1.81619708
