173
Properties=species:S:1:pos:R:3 pbc="F F F"
C        0.00000000       0.00000000       0.00000000
C        0.91648452       0.91648452      -0.91648452
C        1.90666597       0.04323886      -1.67427287
C        2.87739230       0.86043164      -2.55207781
H        3.33027558       1.62885380      -1.91418214
C        4.02777731      -0.03210602      -3.11026613
H        4.60541819      -0.39498617      -2.24923705
N        3.50636103      -1.21371551      -3.80335084
C        4.23260909      -2.39579865      -3.84733658
O        5.30183209      -2.54350455      -3.26544872
C        3.52885635      -3.50650787      -4.65604079
H        3.30843489      -3.11206934      -5.65407609
N        2.25949664      -3.86306440      -3.98864931
C        4.40445314      -4.74593179      -4.78964562
C        4.99778269       0.71887204      -4.04639261
C        5.71985432       1.86637443      -3.36223948
Br       6.94284034       2.70985758      -4.62635517
N        2.15811477       1.53520376      -3.62735265
C        1.70185613       2.83378632      -3.52596007
O        1.94311865       3.56346258      -2.57148565
C        0.90286217       3.29558047      -4.75880944
H        0.14662344       4.01505284      -4.42723701
N        0.21726295       2.12981189      -5.37440478
C        1.84588035       3.93514113      -5.76777566
H        1.41366827       1.62817432      -0.25197065
H        0.22886118       1.44522267      -1.58133158
H        1.35147261      -0.67223322      -2.29425625
H        2.48842342      -0.54717739      -0.95490243
H        2.77056658      -1.09344582      -4.48829326
H        1.76848537      -3.01269479      -3.71617268
H        2.48089656      -4.33492747      -3.10904282
H        3.89530899      -5.52916550      -5.36151770
H        4.67393199      -5.15978273      -3.81091326
H        5.33801310      -4.50331365      -5.30947316
H        4.45901429       1.08175827      -4.93136798
H        5.74241250       0.00976908      -4.43301942
H        6.32917053       1.52316745      -2.52159180
H        5.04413763       2.65765963      -3.03145994
H        1.76438731       1.01833497      -4.41165379
H       -0.25704768       2.45225779      -6.22056197
H       -0.53551744       1.84281159      -4.74437813
H        1.29296520       4.32991373      -6.62695005
H        2.58902914       3.21984009      -6.13796635
H        2.39463649       4.76577465      -5.31013880
C       -0.91648452      -0.91648452      -0.91648452
C       -1.92587858      -1.65205556      -0.04624355
C       -2.82594214      -2.61157436      -0.85238526
H       -2.16884930      -3.25724595      -1.44721627
C       -3.66696101      -3.52751114       0.08853472
H       -2.96029301      -4.15164629       0.65227023
N       -4.42232631      -2.74413611       1.07046606
C       -4.73318279      -3.26847727       2.31751304
O       -4.34666366      -4.36999764       2.69288505
C       -5.56445751      -2.30208833       3.18815658
H       -6.45582344      -2.01446183       2.61984364
N       -4.76370611      -1.09280207       3.47142662
C       -5.99354418      -2.95203379       4.49741101
C       -4.63279718      -4.46845886      -0.66179131
C       -3.92142647      -5.44192667      -1.58511509
Br      -5.23495162      -6.60134366      -2.44275782
N       -3.67941935      -1.86812854      -1.77312330
C       -3.33826545      -1.63362978      -3.08970729
O       -2.34387225      -2.10805748      -3.62613715
C       -4.36205144      -0.75863138      -3.83656925
H       -3.82623995      -0.17215872      -4.59051462
N       -5.01428938       0.17283718      -2.88002741
C       -5.40984163      -1.64644012      -4.49251539
H       -0.24762317      -1.60037563      -1.44581445
H       -1.39222360      -0.23602883      -1.62716299
H       -2.54274839      -0.91667472       0.48592747
H       -1.38870046      -2.22661303       0.71916502
H       -4.96446456      -1.95128767       0.75033820
H       -4.30905060      -0.77828392       2.61537127
H       -3.99871998      -1.35384429       4.09755236
H       -6.57932610      -2.25774236       5.10940728
H       -5.13116562      -3.28217205       5.08827514
H       -6.61344950      -3.83456899       4.30384588
H       -5.36886809      -3.87922052      -1.22405193
H       -5.21937149      -5.03785975       0.07203024
H       -3.23696336      -6.09739476      -1.03957165
H       -3.38921270      -4.94520153      -2.39884297
H       -4.45562937      -1.29952358      -1.43922312
H       -5.72757393       0.70000528      -3.38820343
H       -4.32003229       0.87053967      -2.60217967
H       -6.11425633      -1.05164861      -5.08392405
H       -5.98091430      -2.21561822      -3.75030306
H       -4.93571787      -2.37165317      -5.16317890
C       -0.91648452       0.91648452       0.91648452
C       -0.50673784       2.37248755       0.74495230
C       -1.31306023       3.33228902       1.64455251
H       -1.25146103       2.95099168       2.67085881
C       -0.70428552       4.76785892       1.63379299
H        0.30336763       4.69749583       2.06554087
N       -0.54928344       5.27819440       0.26851852
C        0.45357008       6.18457021      -0.04685310
O        1.29564619       6.55594349       0.76347895
C        0.42352209       6.62729103      -1.52537967
H       -0.57725938       7.01625090      -1.74306865
N        0.68251840       5.45598042      -2.38838047
C        1.45488414       7.71199229      -1.80894119
C       -1.50537861       5.78823046       2.46943827
C       -1.57664077       5.42866880       3.94315866
Br      -2.57334428       6.80564297       4.90006584
N       -2.71884565       3.34768792       1.25413762
C       -3.67138817       2.54365522       1.84655912
O       -3.44390894       1.82296593       2.81119201
C       -5.06619257       2.68234683       1.20871267
H       -5.57862067       1.71802634       1.29226627
N       -4.92497430       3.02643197      -0.22992665
C       -5.85025593       3.77059183       1.92794938
H       -0.78450152       0.56576781       1.94354391
H       -1.94118543       0.72730922       0.58692078
H       -0.62591667       2.65612755      -0.30854858
H        0.56015414       2.47538164       0.98092097
H       -1.33041234       5.20657074      -0.37156905
H        0.13171731       4.66389948      -2.06021892
H        1.65661622       5.17262888      -2.26100075
H        1.42833612       8.01668770      -2.86069039
H        2.47215542       7.37502704      -1.57780910
H        1.25823401       8.59935389      -1.19694727
H       -2.51600270       5.90044574       2.05569210
H       -1.04036143       6.77816916       2.36667041
H       -0.58513107       5.38643364       4.40236506
H       -2.11075047       4.49448790       4.12801884
H       -3.02620695       3.78232077       0.38584836
H       -5.86127104       3.16904821      -0.61454717
H       -4.56512052       2.20043303      -0.71388126
H       -6.86974860       3.84552723       1.53455315
H       -5.37066004       4.75062689       1.82554864
H       -5.91814914       3.55278554       2.99961526
C        0.91648452      -0.91648452       0.91648452
C        0.66371161      -0.58086062       2.37960547
C        1.55648420      -1.39009056       3.34332699
H        2.59449540      -1.26692502       3.01189111
C        1.45604584      -0.84794436       4.80194723
H        1.84439037       0.17960647       4.79488516
N        0.06434307      -0.77544834       5.25620495
C       -0.33503354       0.17076464       6.18994520
O        0.41952137       1.02946229       6.63371716
C       -1.82846430       0.05673084       6.56358441
H       -2.01727400      -0.96911294       6.89860270
N       -2.65078298       0.33086562       5.36673015
C       -2.20510359       1.02470329       7.67797385
C        2.28213017      -1.65746519       5.82345199
C        3.77174887      -1.64851415       5.52820521
Br       4.71227128      -2.66414994       6.90263187
N        1.22978878      -2.81071525       3.28016715
C        1.89896385      -3.69935341       2.46328526
O        2.88260885      -3.39794406       1.79751397
C        1.31948800      -5.12531025       2.51245382
H        1.46781572      -5.58947424       1.53162333
N       -0.13761440      -5.06222337       2.79687065
C        2.02568316      -5.92594607       3.59716791
H        1.95073815      -0.72442468       0.61865040
H        0.64213112      -1.94488026       0.66840405
H       -0.39460715      -0.75825053       2.60985225
H        0.84647963       0.48949612       2.53916495
H       -0.53603669      -1.57951346       5.12193726
H       -2.26404758      -0.16880113       4.56720971
H       -2.55546972       1.32138905       5.13187068
H       -3.26677772       0.93888530       7.93332421
H       -2.00587441       2.06523346       7.39617039
H       -1.62382769       0.81477587       8.58277617
H        1.91007456      -2.68909584       5.87297014
H        2.11566243      -1.24261026       6.82692831
H        4.18701088      -0.63715928       5.54975962
H        4.02086070      -2.13129533       4.58110118
H        0.35829751      -3.17473321       3.66134535
H       -0.48528139      -6.01978747       2.88126601
H       -0.60114478      -4.68664653       1.96617054
H        1.67595285      -6.96385976       3.61001638
H        1.85935081      -5.49607696       4.59140780
H        3.10774722      -5.93745388       3.42534885
