189
Properties=species:S:1:pos:R:3 pbc="F F F"
C        0.00000000       0.00000000       0.00000000
C        0.91626294       0.91626294      -0.91626294
C        1.51134215       0.08049499      -2.03834639
C        2.36152452       0.91870502      -3.00326993
H        1.74498935       1.72356242      -3.42128777
N        2.83954320       0.09928952      -4.09483896
C        2.07014478      -0.16791764      -5.20410980
O        0.97246597       0.33978778      -5.40942069
C        2.73010543      -1.15555906      -6.18309972
H        1.97899445      -1.45992307      -6.92025560
N        3.18996786      -2.34826057      -5.43614115
C        3.91721436      -0.50363836      -6.88124445
C        3.53245004       1.49806810      -2.32985290
C        4.49228876       1.96347827      -1.78153535
C        5.72752585       2.51916079      -1.07234119
C        6.71485847       2.89166424      -0.49979214
C        7.93900814       3.26864136       0.22493553
H        7.71909833       4.11810506       0.88245811
N        8.33660524       2.12659962       1.02424460
C        8.74578224       2.25078761       2.33504159
O        8.95089469       3.34215174       2.85912501
C        9.05303446       0.89990229       3.02217051
H       10.01357626       0.54798916       2.62756086
N        8.01626127      -0.10414442       2.69596268
C        9.18132161       1.06753385       4.53199661
C        9.03522157       3.66860689      -0.77250113
C       10.32365475       4.08852397      -0.08479736
Br      11.61824190       4.66488883      -1.42675244
H        1.67830222       1.33381031      -0.25294328
H        0.27690845       1.71872844      -1.29337631
H        0.70149388      -0.40465265      -2.59935007
H        2.11506373      -0.73526658      -1.61676368
H        3.60199058      -0.55240925      -3.93163249
H        3.59391980      -3.00922625      -6.10110198
H        2.36563141      -2.81831724      -5.05543384
H        4.31723365      -1.15638014      -7.66446066
H        4.73152143      -0.28262445      -6.18103586
H        3.62274355       0.44409219      -7.34474470
H        8.02020227       1.20927215       0.74015835
H        8.05523718      -0.85550117       3.38650165
H        8.23895185      -0.55119151       1.80887608
H        9.45483903       0.12121659       5.01144963
H        8.24611010       1.42204354       4.97927522
H        9.96114659       1.79766073       4.77616216
H        8.66711363       4.49464685      -1.39706239
H        9.24042153       2.83666647      -1.46073664
H       10.80004976       3.26234443       0.44917054
H       10.17808956       4.93451037       0.59143317
C       -0.91626294      -0.91626294      -0.91626294
C       -1.69751491      -0.04537565      -1.88729295
C       -2.56051525      -0.87308350      -2.84990072
H       -1.91805121      -1.56866867      -3.40311966
N       -3.22119548      -0.00926915      -3.80320704
C       -2.59706513       0.43654796      -4.94581976
O       -1.48382985       0.06470575      -5.30255034
C       -3.44202813       1.43799954      -5.75361749
H       -2.80147155       1.88432327      -6.52217870
N       -3.93162706       2.50328596      -4.84950733
C       -4.62875227       0.73573553      -6.40180372
C       -3.59794499      -1.62873252      -2.13369353
C       -4.44961114      -2.23839724      -1.54929399
C       -5.54927901      -2.98046521      -0.78928360
C       -6.43430005      -3.50315692      -0.16885788
C       -7.53793545      -4.06852888       0.62375036
H       -7.17442100      -4.94828722       1.16796295
N       -7.95583264      -3.05190828       1.56878066
C       -8.21584121      -3.33795234       2.89226528
O       -8.26453387      -4.48833541       3.31894787
C       -8.57502677      -2.09487943       3.73913997
H       -9.59924451      -1.80784122       3.47308117
N       -7.67432846      -0.96441210       3.42258640
C       -8.53249136      -2.41370087       5.22933338
C       -8.68848766      -4.48427146      -0.30357047
C       -9.85559930      -5.09530903       0.45393226
Br     -11.22147360      -5.67413853      -0.81427104
H       -1.56470701      -1.46897467      -0.23137413
H       -0.24724382      -1.61093478      -1.43083460
H       -0.99753016       0.56970444      -2.46836558
H       -2.32793260       0.66198761      -1.33061584
H       -4.02001527       0.54330228      -3.50450082
H       -4.46074756       3.17824864      -5.40329661
H       -3.11978701       3.01776661      -4.50072761
H       -5.16528557       1.41389556      -7.07392415
H       -5.34338510       0.36893613      -5.65548387
H       -4.29670474      -0.13002165      -6.98485405
H       -7.75631429      -2.08475011       1.35174833
H       -7.71197651      -0.28808787       4.18683001
H       -8.02679272      -0.46227744       2.61018591
H       -8.84202639      -1.54868107       5.82610146
H       -7.52774691      -2.71076919       5.54963767
H       -9.21240838      -3.23904537       5.46880859
H       -8.31120189      -5.20708093      -1.04054005
H       -9.03894567      -3.61752639      -0.88135259
H      -10.34939844      -4.37503078       1.11120557
H       -9.56413314      -5.98094162       1.02390799
C       -0.91626294       0.91626294       0.91626294
C       -0.53772438       2.37529267       0.71716647
C       -1.42911206       3.32595602       1.52843138
H       -2.47669616       3.16806120       1.24508219
N       -1.08498591       4.70205010       1.24663567
C       -1.58037696       5.37360696       0.15235302
O       -2.42239992       4.90763254      -0.60835802
C       -0.99049072       6.78513959      -0.01798423
H       -1.28267881       7.16123412      -1.00458595
N        0.48620808       6.70837947       0.05567705
C       -1.50654335       7.71552117       1.07275593
C       -1.27506628       3.11108050       2.97422426
C       -1.14240891       2.94085023       4.15404323
C       -0.93353371       2.73142948       5.65406463
C       -0.70347082       2.58019248       6.82265155
C       -0.33984903       2.40495529       8.23790964
H       -0.82802537       1.50238070       8.62433921
N        1.09923605       2.24127887       8.29691744
C        1.70028436       1.28009718       9.08171544
O        1.07228661       0.60966306       9.89654496
C        3.23927874       1.23191092       8.93813405
H        3.64116581       2.09802527       9.47714510
N        3.63872323       1.33755423       7.51732316
C        3.81047415      -0.03584066       9.56317366
C       -0.80341165       3.62133757       9.05158037
C       -0.47384047       3.49358717      10.52954843
Br      -1.18257536       5.03829199      11.48901582
H       -0.74956798       0.57435643       1.94113141
H       -1.95020335       0.71428817       0.62452169
H       -0.61550155       2.62911000      -0.34842025
H        0.51692245       2.52763239       0.98585089
H       -0.23814984       5.09577891       1.64728507
H        0.86557199       7.64442754      -0.09306002
H        0.81267032       6.15536956      -0.73995123
H       -1.18817682       8.74735388       0.88978347
H       -1.14194956       7.42330254       2.06468075
H       -2.60102320       7.69833816       1.11221908
H        1.65493744       2.60818069       7.53607282
H        4.59405077       0.99112038       7.41616476
H        3.68490600       2.31769159       7.24609866
H        4.90476631      -0.04192685       9.51129915
H        3.43736076      -0.93589984       9.06213903
H        3.53069009      -0.10695377      10.62028902
H       -1.88862134       3.74293967       8.92726186
H       -0.34808668       4.53816527       8.65157269
H        0.60263864       3.49703261      10.71882969
H       -0.92896360       2.60947250      10.98273066
C        0.91626294      -0.91626294       0.91626294
C        0.69754647      -2.37701590       0.55562115
C        1.60157195      -3.31953207       1.36239544
H        2.64997319      -3.04466936       1.19519699
N        1.41626322      -4.68715168       0.93025678
C        2.06692498      -5.20544975      -0.16603780
O        2.92364878      -4.59741572      -0.79939006
C        1.63159345      -6.64025688      -0.51420424
H        2.04316736      -6.89354938      -1.49738976
N        0.15353378      -6.69978469      -0.57547003
C        2.13715443      -7.62203486       0.53563117
C        1.30238239      -3.25791869       2.80006996
C        1.05182923      -3.21331827       3.97215488
C        0.69406792      -3.16706692       5.45789299
C        0.34971779      -3.14871146       6.60788561
C       -0.15084624      -3.14174128       7.99181893
H        0.21340320      -2.24111477       8.50022731
N       -1.59863013      -3.11040665       7.92718374
C       -2.35476225      -2.28456514       8.73172537
O       -1.86701016      -1.64285830       9.65807328
C       -3.87294641      -2.35711050       8.44660215
H       -4.23571141      -3.30242801       8.86728797
N       -4.13521078      -2.36099845       6.99036649
C       -4.61483322      -1.20941632       9.12227575
C        0.35410313      -4.38523861       8.73698784
C       -0.11362344      -4.42837893      10.18222058
Br       0.65309234      -5.99001317      11.06677766
H        0.62906124      -0.68959579       1.94639878
H        1.94765706      -0.59807694       0.74327920
H        0.89171161      -2.52018898      -0.51570930
H       -0.35711146      -2.64558503       0.70808727
H        0.57922778      -5.18958658       1.21239946
H       -0.12032120      -7.64682190      -0.84070516
H       -0.15369778      -6.10387882      -1.34743302
H        1.93591246      -8.65547217       0.23392953
H        1.66132684      -7.45872919       1.50987682
H        3.21737836      -7.51344163       0.68076046
H       -2.04837503      -3.44998453       7.08770657
H       -5.10679407      -2.09101418       6.82901426
H       -4.06380117      -3.31104220       6.63164323
H       -5.69601182      -1.29373410       8.96688371
H       -4.28714915      -0.23657062       8.73945695
H       -4.43625330      -1.21546514      10.20343333
H        1.45265014      -4.39943621       8.70673653
H        0.02497302      -5.29584112       8.21701049
H       -1.19723143      -4.54362247      10.26683262
H        0.21379878      -3.55530979      10.75205819
