197
Properties=species:S:1:pos:R:3 pbc="F F F"
C        0.00000000       0.00000000       0.00000000
C        0.91626294       0.91626294      -0.91626294
C        1.51134215       0.08049499      -2.03834639
C        2.36152452       0.91870502      -3.00326993
H        1.74498935       1.72356242      -3.42128777
N        2.83954320       0.09928952      -4.09483896
C        2.07014478      -0.16791764      -5.20410980
O        0.97246597       0.33978778      -5.40942069
C        2.73010543      -1.15555906      -6.18309972
H        1.97899445      -1.45992307      -6.92025560
N        3.18996786      -2.34826057      -5.43614115
C        3.91721436      -0.50363836      -6.88124445
C        3.53245004       1.49806810      -2.32985290
C        4.49228876       1.96347827      -1.78153535
C        5.72752585       2.51916079      -1.07234119
C        6.71485847       2.89166424      -0.49979214
C        7.93900814       3.26864136       0.22493553
H        7.71909833       4.11810506       0.88245811
N        8.33660524       2.12659962       1.02424460
C        8.74578224       2.25078761       2.33504159
O        8.95089469       3.34215174       2.85912501
C        9.05303446       0.89990229       3.02217051
H       10.01357626       0.54798916       2.62756086
N        8.01626127      -0.10414442       2.69596268
C        9.18132161       1.06753385       4.53199661
C        9.03522157       3.66860689      -0.77250113
C       10.32365475       4.08852397      -0.08479736
H        1.67830222       1.33381031      -0.25294328
H        0.27690845       1.71872844      -1.29337631
H        0.70149388      -0.40465265      -2.59935007
H        2.11506373      -0.73526658      -1.61676368
H        3.60199058      -0.55240925      -3.93163249
H        3.59391980      -3.00922625      -6.10110198
H        2.36563141      -2.81831724      -5.05543384
H        4.31723365      -1.15638014      -7.66446066
H        4.73152143      -0.28262445      -6.18103586
H        3.62274355       0.44409219      -7.34474470
H        8.02020227       1.20927215       0.74015835
H        8.05523718      -0.85550117       3.38650165
H        8.23895185      -0.55119151       1.80887608
H        9.45483903       0.12121659       5.01144963
H        8.24611010       1.42204354       4.97927522
H        9.96114659       1.79766073       4.77616216
H        8.66711363       4.49464685      -1.39706239
H        9.24042153       2.83666647      -1.46073664
H       10.80004976       3.26234443       0.44917054
H       10.17808956       4.93451037       0.59143317
C       11.27884205       4.51378417      -1.07493421
C       12.07881141       4.86993958      -1.90417382
Br      13.37229420       5.44581277      -3.24498415
C       -0.91626294      -0.91626294      -0.91626294
C       -1.87304498      -0.04387618      -1.71326235
C       -2.74975131      -0.86254368      -2.67120448
H       -2.10572877      -1.43212995      -3.35198082
N       -3.58464433       0.01373261      -3.46275996
C       -3.12779251       0.62787897      -4.60642340
O       -2.02771701       0.40935250      -5.10330993
C       -4.14295415       1.60750737      -5.22219930
H       -3.63091186       2.18860310      -5.99701823
N       -4.63392016       2.52597457      -4.16990284
C       -5.31923693       0.84966594      -5.82524948
C       -3.63102256      -1.78631293      -1.94303555
C       -4.35586993      -2.53376412      -1.34766833
C       -5.29547801      -3.45470164      -0.56884817
C       -6.05779493      -4.12291458       0.07439465
C       -7.01459263      -4.87239577       0.90427444
H       -6.51504018      -5.75685420       1.31714911
N       -7.42571656      -3.99849821       1.98525451
C       -7.51827564      -4.43356813       3.29031551
O       -7.41357359      -5.61783676       3.59748893
C       -7.90284680      -3.32009382       4.29217440
H       -8.97168572      -3.11754100       4.15522216
N       -7.15064382      -2.07714948       4.01163914
C       -7.67540300      -3.77180831       5.73035246
C       -8.21115917      -5.31647404       0.05130363
C       -9.23015608      -6.11447222       0.84765224
H       -1.43480312      -1.59562475      -0.23462794
H       -0.24200798      -1.48582147      -1.56118376
H       -1.29853796       0.69281828      -2.29047161
H       -2.50589074       0.53830050      -1.02897059
H       -4.39650808       0.44942654      -3.03413227
H       -5.27912628       3.19131645      -4.59798570
H       -3.84229591       3.08706062      -3.84751273
H       -5.98441347       1.52855676      -6.36945745
H       -5.91443518       0.34168383      -5.05718150
H       -4.96961640       0.08206399      -6.52402802
H       -7.34197090      -2.99968586       1.85234069
H       -7.17204719      -1.48350753       4.84232034
H       -7.63159950      -1.54013324       3.29284848
H       -8.00123552      -3.00388392       6.44051345
H       -6.61924636      -3.99143478       5.92180271
H       -8.24581204      -4.68238584       5.94555272
H       -7.84626357      -5.92332212      -0.78923718
H       -8.70005573      -4.44037457      -0.39739434
H       -9.71847452      -5.51475721       1.62000807
H       -8.79869885      -7.01468264       1.29221473
C      -10.28517861      -6.55410638      -0.02827543
C      -11.16875997      -6.92229999      -0.76186485
Br     -12.59743631      -7.51763792      -1.94801690
C       -0.91626294       0.91626294       0.91626294
C       -1.30132878       2.17444017       0.15441456
C       -2.24237796       3.08047981       0.96064170
H       -3.14248235       2.51567821       1.23167899
N       -2.64387285       4.22163812       0.16816071
C       -3.68061814       4.16048375      -0.73476496
O       -4.40882960       3.18257319      -0.86972835
C       -3.85713335       5.45275812      -1.55224539
H       -4.55913931       5.24825877      -2.36807109
N       -2.55032677       5.85064419      -2.12312252
C       -4.38971892       6.57504997      -0.66994843
C       -1.59522586       3.58522145       2.17992373
C       -1.06350854       4.00346861       3.17032523
C       -0.35652030       4.55288386       4.40962366
C        0.24602713       5.01061589       5.34172609
C        1.04426565       5.59644512       6.43053449
H        1.14394191       4.86100827       7.23767892
N        2.35352247       5.90321905       5.88926368
C        3.51822373       5.61233359       6.56741841
O        3.52116339       5.22307300       7.73201181
C        4.80183735       5.95612455       5.77647903
H        4.91485158       7.04642471       5.80243143
N        4.67945667       5.53117238       4.36443845
C        6.03081650       5.32584014       6.42183521
C        0.34845062       6.85334972       6.97143049
C        1.11502247       7.49733935       8.11465918
H       -0.32462308       1.13016040       1.81027234
H       -1.78767988       0.31435955       1.18697377
H       -1.79037627       1.89372770      -0.78791268
H       -0.39704583       2.73008121      -0.13056620
H       -1.98440644       4.97986649       0.01694089
H       -2.68781687       6.68827879      -2.69030013
H       -2.25996409       5.12390884      -2.78112492
H       -4.63139714       7.46087505      -1.26695802
H       -3.66205097       6.87407882       0.09380305
H       -5.29798785       6.25914551      -0.14555291
H        2.43982008       6.03819141       4.89094474
H        5.61328854       5.47103661       3.95548631
H        4.20438795       6.25471178       3.82856042
H        6.94564203       5.61646235       5.89378567
H        5.96831896       4.23202172       6.42517567
H        6.13329942       5.65343164       7.46251294
H       -0.66130038       6.58502476       7.31249773
H        0.21065385       7.58526414       6.16321435
H        2.08078069       7.89792196       7.79608240
H        1.25395753       6.81681234       8.95831194
C        0.37213062       8.62504884       8.61464220
C       -0.25004130       9.56950553       9.03337798
Br      -1.25604068      11.09661213       9.71043831
C        0.91626294      -0.91626294       0.91626294
C        0.50829618      -2.37150990       0.75037744
C        1.39717917      -3.32357896       1.56274133
H        2.44210371      -3.18973999       1.25799584
N        1.02359130      -4.69801063       1.31206974
C        1.48706895      -5.39777948       0.22148850
O        2.32333453      -4.96072727      -0.56238737
C        0.86918789      -6.80120682       0.08725138
H        1.13673169      -7.20001469      -0.89741939
N       -0.60433671      -6.69642621       0.18575893
C        1.38827721      -7.72123546       1.18530779
C        1.27317982      -3.08027355       3.00691766
C        1.16495270      -2.88671599       4.18563369
C        0.98702639      -2.64690658       5.68509485
C        0.78088400      -2.47077239       6.85465845
C        0.44611845      -2.26384121       8.27275431
H        0.95718401      -1.36352385       8.63403742
N       -0.98852423      -2.07311387       8.35437063
C       -1.55807795      -1.08740404       9.13220218
O       -0.90360801      -0.41406572       9.92346371
C       -3.09831932      -1.01392342       9.01516213
H       -3.50572016      -1.86289767       9.57682704
N       -3.52523726      -1.13756673       7.60382468
C       -3.63547050       0.27487614       9.62720550
C        0.90263251      -3.47375516       9.09994192
C        0.60219750      -3.31379680      10.58098176
H        0.77425671      -0.55322361       1.93757549
H        1.94818011      -0.73826043       0.60257266
H        0.56224253      -2.64560265      -0.31165388
H       -0.54385554      -2.49992848       1.04048790
H        0.17728006      -5.06915622       1.73477753
H       -1.00291677      -7.62794948       0.06076282
H       -0.93526447      -6.15183232      -0.61381984
H        1.04835174      -8.75022564       1.02673678
H        1.04695585      -7.40487092       2.17810607
H        2.48342461      -7.72317152       1.20498431
H       -1.56434609      -2.44336657       7.61029560
H       -4.47592804      -0.77574734       7.51341507
H       -3.59374512      -2.12137542       7.35125395
H       -4.73024119       0.29984982       9.59469699
H       -3.25554289       1.15898056       9.10340188
H       -3.33537312       0.35969931      10.67771760
H        1.98307953      -3.61717630       8.95856704
H        0.42390845      -4.38915726       8.72475893
H       -0.47056929      -3.29438578      10.78940717
H        1.08110078      -2.43014795      11.00991802
C        1.11750537      -4.45004039      11.30001465
C        1.54907571      -5.40164441      11.90220470
Br       2.24688845      -6.94030761      12.87589507
