182
Properties=species:S:1:pos:R:3 pbc="F F F"
C        1.82402654       1.82402654      -1.82402654
C        1.21463204       3.20438452      -2.01664256
C        1.11670834       4.06837669      -0.74516235
N        2.31893058       4.03797887       0.07880265
C        3.58458230       4.33714944      -0.37643585
O        3.83299763       4.59249319      -1.55049463
C        4.64900010       4.32851005       0.74891879
N        4.27135356       3.35686569       1.80289892
C        6.07233594       4.09913579       0.21624572
C        6.30282898       2.73987539      -0.46234839
C        7.73219017       2.64135058      -1.01005151
C        8.02760559       1.32210817      -1.72787202
N        7.25829139       1.15569306      -2.95536654
C        0.70287878       5.54828619      -0.99338981
O        1.03287076       6.46101567      -0.23529507
N       -0.18134089       5.76563129      -2.02767640
C       -0.62806579       7.09156310      -2.33687519
Br      -2.16310439       6.95415189      -3.50930622
H        1.89488425       1.30169965      -2.78332801
H        2.81725392       1.84276454      -1.37052483
H        0.21086748       3.08542444      -2.44496124
H        1.79894829       3.73616883      -2.77796041
H        0.32270085       3.66071219      -0.10715564
H        2.22548131       4.01014072       1.09171669
H        4.61263295       5.32743638       1.20095461
H        4.25255248       2.41945944       1.39827868
H        5.00630419       3.33816684       2.51050707
H        6.78376659       4.20659644       1.04517960
H        6.31121927       4.89543122      -0.49987344
H        5.58271544       2.60914269      -1.27568834
H        6.13737811       1.92585376       0.25232253
H        8.43902939       2.74473084      -0.17709791
H        7.92730552       3.47962156      -1.69092721
H        7.83212993       0.47467309      -1.06179400
H        9.09247014       1.28812199      -1.98409490
H        7.38153654       1.97723643      -3.54889641
H        6.26412313       1.11539062      -2.74347307
H       -0.29787936       5.07864975      -2.75630343
H        0.15724234       7.63075970      -2.87231957
H       -0.92637178       7.63291495      -1.43583960
C       -1.82402654      -1.82402654      -1.82402654
C       -1.96849988      -3.22290028      -1.24425896
C       -2.71913056      -3.30918495       0.09806812
N       -3.92855386      -2.49674230       0.14718936
C       -4.95852470      -2.57486977      -0.76477311
O       -4.92341471      -3.29526203      -1.75730872
C       -6.16126351      -1.67084144      -0.39648643
N       -5.69403974      -0.47352951       0.34224892
C       -7.02804097      -1.31297002      -1.61421503
C       -6.31858335      -0.48755683      -2.69891259
C       -7.25148744      -0.24088303      -3.89122180
C       -6.60237159       0.55263318      -5.02784738
N       -5.51767702      -0.17022381      -5.68145015
C       -3.05418756      -4.75569965       0.56533243
O       -4.01518078      -5.00726479       1.29326406
N       -2.13012270      -5.72623026       0.24438615
C       -2.34217084      -7.08952639       0.63132473
Br      -0.67182445      -8.04545251       0.41692324
H       -1.32052290      -1.86429714      -2.79509186
H       -2.77484187      -1.30266167      -1.95303975
H       -0.96650035      -3.65404317      -1.12070964
H       -2.47146433      -3.85404778      -1.98756543
H       -2.07141284      -2.90525531       0.88609948
H       -4.15326356      -1.99291182       1.00227004
H       -6.77542258      -2.25970727       0.29601514
H       -5.08110267       0.07252235      -0.26515293
H       -6.49655676       0.12596621       0.53662658
H       -7.91278177      -0.76134828      -1.27105338
H       -7.39980226      -2.24170612      -2.06501557
H       -5.41995174      -1.01525148      -3.03234324
H       -5.99664397       0.47751007      -2.29177543
H       -8.13171703       0.31463007      -3.54377118
H       -7.62003993      -1.19927407      -4.27854028
H       -6.22432286       1.51084485      -4.65511901
H       -7.36431073       0.78111876      -5.78149506
H       -5.84694180      -1.09340401      -5.96732356
H       -4.76155827      -0.33923140      -5.02219715
H       -1.46410072      -5.57563325      -0.49733985
H       -3.08094997      -7.55052007      -0.02885158
H       -2.65382125      -7.16447701       1.67591548
C       -1.82402654       1.82402654       1.82402654
C       -3.17335048       1.17356485       2.08874380
C       -3.13207338      -0.12229737       2.92047137
N       -2.24883676      -0.04863265       4.07790269
C       -2.32310384       0.91940535       5.05565839
O       -3.10456474       1.86402900       5.00739172
C       -1.32918435       0.68000669       6.21940033
N       -0.11767069      -0.01505775       5.72270739
C       -0.99757125       1.96805037       6.98960440
C       -0.28400616       3.05298893       6.16805768
C       -0.05774100       4.31331192       7.01253935
C        0.62434599       5.45187207       6.25005970
N       -0.19988086       5.99346966       5.17600045
C       -4.52470999      -0.65161473       3.37145952
O       -4.67397001      -1.33191825       4.38712975
N       -5.56565786      -0.44596477       2.49227371
C       -6.88755895      -0.89802351       2.81083706
Br      -7.95096682      -0.84402393       1.19341083
H       -1.95389338       2.75792911       1.26808941
H       -1.25698843       2.04209918       2.73145568
H       -3.65382697       0.96303186       1.12439433
H       -3.81895726       1.90850183       2.58561844
H       -2.71854124      -0.92406947       2.29609690
H       -1.68060094      -0.85718758       4.32049198
H       -1.83699252      -0.00625478       6.90837697
H        0.35283605       0.58398706       5.04258225
H        0.53862804      -0.12384000       6.49643200
H       -0.37492500       1.71333403       7.85692439
H       -1.92918646       2.38600171       7.39133577
H       -0.88302025       3.29854584       5.28598038
H        0.68400838       2.68375997       5.81115775
H        0.56878507       4.05426957       7.87537363
H       -1.01514815       4.66607960       7.41662654
H        1.58011314       5.11304109       5.83566907
H        0.84973742       6.26345097       6.95097348
H       -1.11820204       6.24478043       5.54468690
H       -0.37153314       5.27978008       4.47167360
H       -5.50061050       0.26049929       1.77596403
H       -7.34468327      -0.22132123       3.53695957
H       -6.87914308      -1.92383451       3.18707421
C        1.82402654      -1.82402654       1.82402654
C        1.06890083      -2.31823390       3.04852438
C       -0.10499043      -3.27347299       2.76176483
N        0.20255282      -4.30104983       1.77450414
C        1.26794646      -5.17072324       1.85949788
O        2.11020219      -5.11582690       2.74995637
C        1.27922310      -6.22484860       0.72451967
N        0.66369595      -5.66316337      -0.50153899
C        2.67901648      -6.80624289       0.46996665
C        3.72722325      -5.79257506      -0.01474554
C        5.09729584      -6.46297619      -0.17667976
C        6.20216487      -5.50562910      -0.63020819
N        6.51820030      -4.48698809       0.36416259
C       -0.72272974      -3.94369251       4.02359201
O       -1.28745704      -5.03722301       3.97941553
N       -0.73800128      -3.17968737       5.17028072
C       -1.28788244      -3.70236846       6.38588648
Br      -1.54439238      -2.22887919       7.61586692
H        2.66450369      -1.19059740       2.12481081
H        2.20985181      -2.62754598       1.19314549
H        0.69295597      -1.44727714       3.60102005
H        1.78469655      -2.80745445       3.72092654
H       -0.92711542      -2.69365555       2.32402855
H       -0.50490104      -4.55882084       1.08998555
H        0.63057192      -7.03993707       1.06860572
H        1.22333423      -4.87070097      -0.82030195
H        0.72042767      -6.35913205      -1.24559576
H        2.59941977      -7.61434337      -0.26857972
H        3.03973148      -7.27023090       1.39656156
H        3.79854185      -4.96804292       0.70096169
H        3.42392092      -5.36318830      -0.97619988
H        5.01330581      -7.26664696      -0.91909464
H        5.39119473      -6.93941892       0.76724063
H        5.92059812      -5.01771696      -1.56971805
H        7.11196915      -6.08274986      -0.83003198
H        6.71190893      -4.93469350       1.26106694
H        5.71036679      -3.88947411       0.52314592
H       -0.12036211      -2.38893076       5.26850517
H       -0.58158135      -4.40131825       6.84058471
H       -2.25383231      -4.18302463       6.21319046
C       -0.00445707       0.01189536      -1.78238275
H       -0.66409135       0.67374010      -2.43557963
H        0.65740317      -0.63156657      -2.45157240
C       -0.90989263      -0.90692880      -0.91072765
C        0.90977584       0.90977584      -0.90977584
C       -0.00465871       1.77757030       0.00794375
H       -0.66225468       2.44313916      -0.64384735
H        0.64322798       2.43503045       0.67728295
C       -1.78241447       0.00034974      -0.00472694
H       -2.45427497      -0.65498947       0.64260836
H       -2.43311707       0.67328779      -0.65473579
C       -0.91132561       0.90220522       0.91563759
C       -0.01476271      -0.02253852       1.78660255
H       -0.67934791      -0.69751639       2.42135241
H        0.63392994       0.61504881       2.47327442
C        0.01484550      -1.77751727      -0.01636693
H        0.67870853      -2.42144646      -0.68295456
H       -0.62264859      -2.45592969       0.64226336
C        1.78714474       0.01002794       0.00389507
H        2.44202412       0.67113390       0.66197326
H        2.45385902      -0.65136977      -0.64189061
C        0.91606151      -0.90478549       0.90901405
