190
Properties=species:S:1:pos:R:3 pbc="F F F"
C        1.82402654       1.82402654      -1.82402654
C        1.21463204       3.20438452      -2.01664256
C        1.11670834       4.06837669      -0.74516235
N        2.31893058       4.03797887       0.07880265
C        3.58458230       4.33714944      -0.37643585
O        3.83299763       4.59249319      -1.55049463
C        4.64900010       4.32851005       0.74891879
N        4.27135356       3.35686569       1.80289892
C        6.07233594       4.09913579       0.21624572
C        6.30282898       2.73987539      -0.46234839
C        7.73219017       2.64135058      -1.01005151
C        8.02760559       1.32210817      -1.72787202
N        7.25829139       1.15569306      -2.95536654
C        0.70287878       5.54828619      -0.99338981
O        1.03287076       6.46101567      -0.23529507
N       -0.18134089       5.76563129      -2.02767640
C       -0.62806579       7.09156310      -2.33687519
H        1.89488425       1.30169965      -2.78332801
H        2.81725392       1.84276454      -1.37052483
H        0.21086748       3.08542444      -2.44496124
H        1.79894829       3.73616883      -2.77796041
H        0.32270085       3.66071219      -0.10715564
H        2.22548131       4.01014072       1.09171669
H        4.61263295       5.32743638       1.20095461
H        4.25255248       2.41945944       1.39827868
H        5.00630419       3.33816684       2.51050707
H        6.78376659       4.20659644       1.04517960
H        6.31121927       4.89543122      -0.49987344
H        5.58271544       2.60914269      -1.27568834
H        6.13737811       1.92585376       0.25232253
H        8.43902939       2.74473084      -0.17709791
H        7.92730552       3.47962156      -1.69092721
H        7.83212993       0.47467309      -1.06179400
H        9.09247014       1.28812199      -1.98409490
H        7.38153654       1.97723643      -3.54889641
H        6.26412313       1.11539062      -2.74347307
H       -0.29787936       5.07864975      -2.75630343
H        0.15724234       7.63075970      -2.87231957
H       -0.92637178       7.63291495      -1.43583960
C       -1.76956756       6.98937991      -3.20873086
C       -2.72557530       6.90380148      -3.93890998
Br      -4.27135894       6.76542840      -5.11954786
C       -1.82402654      -1.82402654      -1.82402654
C       -3.12436069      -1.12354022      -2.18775821
C       -2.97749508       0.12505185      -3.07780416
N       -2.04437635      -0.04959519      -4.18413526
C       -2.12036109      -1.06119250      -5.11661399
O       -2.95006450      -1.96340652      -5.06251444
C       -1.06067515      -0.92919471      -6.23872150
N        0.15913416      -0.26905982      -5.71539467
C       -0.75797594      -2.26906411      -6.92818597
C       -0.14067549      -3.34413672      -6.02024056
C        0.06191614      -4.65503774      -6.79047067
C        0.64794673      -5.78507466      -5.94045785
N       -0.25344101      -6.23124989      -4.88466008
C       -4.31819407       0.69734597      -3.62370668
O       -4.38370293       1.33175272      -4.67723130
N       -5.40937298       0.58687288      -2.78946670
C       -6.68980221       1.08539377      -3.19596405
H       -2.02764932      -2.72123918      -1.23102339
H       -1.22569123      -2.11483391      -2.69001815
H       -3.63947060      -0.84154314      -1.26023942
H       -3.78165724      -1.85072815      -2.68069214
H       -2.55446532       0.93654975      -2.47265310
H       -1.42490229       0.71731847      -4.43632152
H       -1.49929566      -0.25502649      -6.98479256
H        0.56538692      -0.85487544      -4.98424473
H        0.85661833      -0.23134312      -6.45923917
H       -0.08216305      -2.08888755      -7.77413282
H       -1.68911644      -2.66144277      -7.35596473
H       -0.79316135      -3.51556781      -5.15881731
H        0.82646868      -3.00438512      -5.63299290
H        0.74160225      -4.47050558      -7.63195480
H       -0.89153934      -4.98126862      -7.22504632
H        1.59856410      -5.47214568      -5.49501545
H        0.86546950      -6.64101789      -6.58913864
H       -1.16447499      -6.45636300      -5.28683138
H       -0.42247683      -5.47537324      -4.22513676
H       -5.41477036      -0.08472971      -2.03757374
H       -7.14508220       0.39560866      -3.91084807
H       -6.61133891       2.08924083      -3.62028470
C       -7.53864066       1.14433919      -2.03424174
C       -8.24954285       1.19370598      -1.06129930
Br      -9.39901157       1.27352791       0.51186633
C       -1.82402654       1.82402654       1.82402654
C       -2.00505657       1.22159935       3.20900320
C       -0.72802829       1.13611357       4.06610552
N        0.08870747       2.34290392       4.02391034
C       -0.37217297       3.60761620       4.31837840
O       -1.54616009       3.85069483       4.57913054
C        0.74687378       4.67848475       4.29698040
N        1.79738034       4.30129635       3.32140432
C        0.20456965       6.09733765       4.06245802
C       -0.48324436       6.31593853       2.70586988
C       -1.03985312       7.74149382       2.60224533
C       -1.76703907       8.02502083       1.28552587
N       -2.99096348       7.24762967       1.13075783
C       -0.96523227       0.72950331       5.54981920
O       -0.20378926       1.06922114       6.45617111
N       -1.99305459      -0.15942470       5.77833691
C       -2.29193010      -0.60018308       7.10862548
H       -2.78674374       1.88625711       1.30691104
H       -1.37623489       2.81996415       1.83434425
H       -2.42818669       0.21468560       3.09838087
H       -2.76667358       1.80458042       3.74182353
H       -0.08777196       0.34345728       3.65933943
H        1.10197144       2.25517933       3.99069745
H        1.20490967       4.65058159       5.29344280
H        1.38743816       4.27466806       2.38650335
H        2.50056146       5.04022337       3.29430205
H        1.02994270       6.81418744       4.16093868
H       -0.50829522       6.33670565       4.86152306
H       -1.29310846       5.59036073       2.58407727
H        0.22764027       6.14988849       1.88866112
H       -0.21045736       8.45375186       2.69664891
H       -1.71697614       7.93754533       3.44333281
H       -1.10476436       7.82846951       0.43536315
H       -2.02967279       9.08816222       1.24685202
H       -3.58042088       7.37222309       1.95502541
H       -2.77350231       6.25449059       1.09499391
H       -2.72496671      -0.28420601       5.09631311
H       -2.82881266       0.18513850       7.64637046
H       -1.38603727      -0.89008152       7.64642703
C       -3.15767987      -1.74730790       7.01817124
C       -3.88274530      -2.70802494       6.94241581
Br      -5.05511478      -4.26142314       6.81992569
C        1.82402654      -1.82402654       1.82402654
C        3.13506892      -2.16733155       1.13325865
C        4.07850054      -0.97756232       0.87418452
N        4.20168230      -0.06892933       2.00749517
C        4.56496770      -0.45336276       3.27983712
O        4.75330735      -1.62270765       3.59997046
C        4.72083654       0.74328207       4.25103690
N        3.80149273       1.83976702       3.86359462
C        4.56527810       0.33449851       5.72444642
C        3.18262458      -0.21751845       6.10490974
C        3.15655558      -0.65101980       7.57601689
C        1.81592036      -1.24046596       8.02119945
N        1.50162567      -2.50366404       7.36406127
C        5.49976427      -1.36978220       0.37500831
O        6.48790240      -0.66332955       0.57794956
N        5.57206381      -2.47912302      -0.43922002
C        6.83324649      -2.92233447      -0.95520846
H        1.24079328      -2.73200411       2.00711451
H        1.95295849      -1.30270703       2.77487777
H        2.90748353      -2.65655390       0.17721573
H        3.65434643      -2.92354607       1.73518504
H        3.65735722      -0.36881277       0.06439869
H        4.23998949       0.93364630       1.83756215
H        5.74395712       1.11218414       4.10734173
H        2.83866899       1.50922045       3.94428471
H        3.89143252       2.59798658       4.54051802
H        4.78760339       1.20181053       6.35939057
H        5.32388420      -0.42240121       5.96023853
H        2.93761001      -1.06813751       5.46179894
H        2.41201737       0.54463666       5.94352862
H        3.37475622       0.22027532       8.20637724
H        3.95603379      -1.37931743       7.76250307
H        1.00623143      -0.52619309       7.83617250
H        1.84667225      -1.41554617       9.10246861
H        2.28518282      -3.14900595       7.47348060
H        1.39931565      -2.36175112       6.36192005
H        4.82717774      -3.15844612      -0.44855004
H        7.39191630      -3.43999545      -0.17159014
H        7.41343587      -2.09023090      -1.36128399
C        6.57950916      -3.86384946      -2.01481542
C        6.36700415      -4.65236826      -2.90223624
Br       6.02340152      -5.92733647      -4.33712066
C       -0.00445707       0.01189536      -1.78238275
H       -0.66409135       0.67374010      -2.43557963
H        0.65740317      -0.63156657      -2.45157240
C       -0.90989263      -0.90692880      -0.91072765
C        0.90977584       0.90977584      -0.90977584
C       -0.00465871       1.77757030       0.00794375
H       -0.66225468       2.44313916      -0.64384735
H        0.64322798       2.43503045       0.67728295
C       -1.78241447       0.00034974      -0.00472694
H       -2.45427497      -0.65498947       0.64260836
H       -2.43311707       0.67328779      -0.65473579
C       -0.91132561       0.90220522       0.91563759
C       -0.01476271      -0.02253852       1.78660255
H       -0.67934791      -0.69751639       2.42135241
H        0.63392994       0.61504881       2.47327442
C        0.01484550      -1.77751727      -0.01636693
H        0.67870853      -2.42144646      -0.68295456
H       -0.62264859      -2.45592969       0.64226336
C        1.78714474       0.01002794       0.00389507
H        2.44202412       0.67113390       0.66197326
H        2.45385902      -0.65136977      -0.64189061
C        0.91606151      -0.90478549       0.90901405
