69
Properties=species:S:1:pos:R:3 pbc="F F F"
C        0.00000000       0.00000000       0.00000000
C        0.87211993       0.87211993      -0.87211993
S        0.59245343       2.52617793      -1.09860476
C        1.95451070       2.65782187      -2.13177632
C        2.60631918       1.45055237      -2.29742434
C        1.96708257       0.40568256      -1.55633501
C        3.80815044       1.22874974      -3.12245878
C        4.24560611       0.00645484      -3.59639412
S        5.68267420       0.14309470      -4.52237466
C        5.72163721       1.81935379      -4.29104984
C        4.67767099       2.28962664      -3.53344111
H        2.19427601       3.61758244      -2.56754233
H        2.29519793      -0.62548537      -1.51880441
H        3.79780089      -0.96798867      -3.46005565
H        4.55102776       3.33506808      -3.28108898
C        6.75182737       2.66506713      -4.83609771
C        7.61461163       3.37335205      -5.29257531
Br       9.00966081       4.51858886      -6.03066098
C       -0.87211993      -0.87211993      -0.87211993
S       -0.29860500      -1.66562479      -2.25300633
C       -1.84292135      -2.34710297      -2.55408458
C       -2.77754730      -1.96701667      -1.60973191
C       -2.20293541      -1.10122527      -0.62493946
C       -4.19283954      -2.38014948      -1.58636994
C       -5.20776037      -1.73978822      -0.90090649
S       -6.72454295      -2.51194894      -1.11165167
C       -6.03202783      -3.69210945      -2.10790357
C       -4.68198860      -3.52510970      -2.29364045
H       -1.97848558      -2.98393896      -3.41697624
H       -2.73080113      -0.67824950       0.22053367
H       -5.15031121      -0.85020528      -0.28935138
H       -4.07851938      -4.19285738      -2.89580806
C       -6.78852755      -4.76527979      -2.69918487
C       -7.42209607      -5.66405995      -3.19438297
Br      -8.44652278      -7.11731146      -3.99507640
C       -0.87211993       0.87211993       0.87211993
S       -1.32565857       0.44540700       2.44617056
C       -2.21444764       1.90020370       2.62945754
C       -2.16180073       2.69343692       1.49905824
C       -1.37302582       2.08556827       0.47050605
C       -2.81973000       4.00302274       1.33660621
C       -3.09256986       4.62361101       0.13227420
S       -3.86810833       6.13893504       0.34110020
C       -3.83824869       5.96892293       2.02486922
C       -3.25988943       4.79651429       2.44433502
H       -2.73465448       2.08612998       3.55861632
H       -1.17602104       2.51585667      -0.50336074
H       -2.88846848       4.27016167      -0.86876228
H       -3.15086540       4.52846557       3.48785385
C       -4.36739754       6.96033847       2.92525621
C       -4.81055969       7.79064899       3.67933030
Br      -5.52711542       9.13319087       4.89860434
C        0.87211993      -0.87211993       0.87211993
S        2.49940910      -1.18830516       0.52952186
C        2.64839184      -2.16441547       1.93130159
C        1.46683754      -2.24382479       2.64363355
C        0.42738923      -1.48391010       2.01780081
C        1.26492904      -3.00282938       3.89160054
C        0.04449876      -3.39878020       4.40517612
S        0.20679326      -4.26479726       5.87655304
C        1.89171684      -4.11089600       5.82942800
C        2.34595895      -3.42376080       4.73101900
H        3.59784728      -2.63356426       2.14798924
H       -0.58452017      -1.38334670       2.38969044
H       -0.94279743      -3.23706486       3.99560044
H        3.39456434      -3.22669064       4.54592984
C        2.75956840      -4.64830771       6.84511610
C        3.48639409      -5.09839001       7.69575489
Br       4.66160974      -5.82613503       9.07116586
