82
Properties=species:S:1:pos:R:3 pbc="F F F"
C        1.78202396       1.78202396      -1.78202396
S        1.50235745       3.43608195      -2.00850878
C        2.86441472       3.56772590      -3.04168034
C        3.51622320       2.36045639      -3.20732836
C        2.87698659       1.31558658      -2.46623904
C        4.71805446       2.13865376      -4.03236280
C        5.15551014       0.91635887      -4.50629815
S        6.59257823       1.05299872      -5.43227869
C        6.63154124       2.72925782      -5.20095386
C        5.58757501       3.19953067      -4.44334514
Br       7.97160895       3.82935873      -5.90995021
H        3.10418003       4.52748647      -3.47744635
H        3.20510195       0.28441866      -2.42870844
H        4.70770492      -0.05808465      -4.36995967
H        5.46093178       4.24497210      -4.19099300
C       -1.78202396      -1.78202396      -1.78202396
S       -1.60478106      -3.46264770      -1.87951943
C       -2.90211408      -3.57690952      -2.99479737
C       -3.45542314      -2.34413147      -3.28445334
C       -2.79441830      -1.29399201      -2.57040190
C       -4.58212134      -2.10247902      -4.20447067
C       -4.90082097      -0.89039881      -4.78694737
S       -6.28018977      -0.99720520      -5.80046066
C       -6.45164840      -2.64696068      -5.46314384
C       -5.49509121      -3.13032457      -4.60503504
Br      -7.81622546      -3.70392363      -6.19076881
H       -3.17952138      -4.54709027      -3.38250120
H       -3.05118193      -0.24345918      -2.62358793
H       -4.39569231       0.05977788      -4.68366552
H       -5.45885760      -4.16154516      -4.27649414
C       -1.78202396       1.78202396       1.78202396
S       -3.12264524       1.19302533       2.63127762
C       -3.44914605       2.74738773       3.27728718
C       -2.54351727       3.69688682       2.84360386
C       -1.56729639       3.12540014       1.96611568
C       -2.54967842       5.12369657       3.21569603
C       -1.91242215       6.13852953       2.52721547
S       -2.14529879       7.67057414       3.26198271
C       -3.08720579       6.98480172       4.48974541
C       -3.23822477       5.62576240       4.36646365
Br      -3.84487134       7.98691842       5.87912813
H       -4.29726414       2.87697257       3.93487615
H       -0.74984146       3.66442984       1.50395774
H       -1.32485382       6.07253320       1.62219292
H       -3.80345296       5.02519453       5.06824940
C        1.78202396      -1.78202396       1.78202396
S        3.10174044      -1.18631604       2.65889171
C        3.44144593      -2.74504666       3.28732838
C        2.55592139      -3.70098947       2.82709709
C        1.58414700      -3.13084742       1.94381779
C        2.57741387      -5.13279915       3.17885801
C        1.96478443      -6.14655039       2.46683233
S        2.20929672      -7.68558655       3.18297236
C        3.12358457      -7.00428462       4.43388373
C        3.25667249      -5.64158919       4.33218914
Br       3.87577887      -8.01548830       5.81965073
H        4.28188745      -2.87202382       3.95520158
H        0.78124693      -3.67473646       1.46224565
H        1.38928662      -6.07585469       1.55443864
H        3.80309110      -5.04323702       5.05056877
C       -0.00445707       0.01189536      -1.78238275
H       -0.66409135       0.67374010      -2.43557963
H        0.65740317      -0.63156657      -2.45157240
C       -0.90989263      -0.90692880      -0.91072765
C        0.90977584       0.90977584      -0.90977584
C       -0.00465871       1.77757030       0.00794375
H       -0.66225468       2.44313916      -0.64384735
H        0.64322798       2.43503045       0.67728295
C       -1.78241447       0.00034974      -0.00472694
H       -2.45427497      -0.65498947       0.64260836
H       -2.43311707       0.67328779      -0.65473579
C       -0.91132561       0.90220522       0.91563759
C       -0.01476271      -0.02253852       1.78660255
H       -0.67934791      -0.69751639       2.42135241
H        0.63392994       0.61504881       2.47327442
C        0.01484550      -1.77751727      -0.01636693
H        0.67870853      -2.42144646      -0.68295456
H       -0.62264859      -2.45592969       0.64226336
C        1.78714474       0.01002794       0.00389507
H        2.44202412       0.67113390       0.66197326
H        2.45385902      -0.65136977      -0.64189061
C        0.91606151      -0.90478549       0.90901405
